# MODFLOW Output Control (OC) Package
# Data set created 2021-10-03 using MODFLOW Pre-Processing.R
#
HEAD SAVE UNIT 30
HEAD PRINT FORMAT 0
COMPACT BUDGET
PERIOD 1 STEP 31
SAVE HEAD
SAVE BUDGET
PRINT BUDGET
PERIOD 2 STEP 30
SAVE HEAD
SAVE BUDGET
PRINT BUDGET
PERIOD 3 STEP 31
SAVE HEAD
SAVE BUDGET
PRINT BUDGET
PERIOD 4 STEP 31
SAVE HEAD
SAVE BUDGET
PRINT BUDGET
PERIOD 5 STEP 29
SAVE HEAD
SAVE BUDGET
PRINT BUDGET
PERIOD 6 STEP 31
SAVE HEAD
SAVE BUDGET
PRINT BUDGET
PERIOD 7 STEP 30
SAVE HEAD
SAVE BUDGET
PRINT BUDGET
PERIOD 8 STEP 31
SAVE HEAD
SAVE BUDGET
PRINT BUDGET
PERIOD 9 STEP 30
SAVE HEAD
SAVE BUDGET
PRINT BUDGET
PERIOD 10 STEP 31
SAVE HEAD
SAVE BUDGET
PRINT BUDGET
PERIOD 11 STEP 31
SAVE HEAD
SAVE BUDGET
PRINT BUDGET
PERIOD 12 STEP 30
SAVE HEAD
SAVE BUDGET
PRINT BUDGET
PERIOD 13 STEP 31
SAVE HEAD
SAVE BUDGET
PRINT BUDGET
PERIOD 14 STEP 30
SAVE HEAD
SAVE BUDGET
PRINT BUDGET
PERIOD 15 STEP 31
SAVE HEAD
SAVE BUDGET
PRINT BUDGET
PERIOD 16 STEP 31
SAVE HEAD
SAVE BUDGET
PRINT BUDGET
PERIOD 17 STEP 28
SAVE HEAD
SAVE BUDGET
PRINT BUDGET
PERIOD 18 STEP 31
SAVE HEAD
SAVE BUDGET
PRINT BUDGET
PERIOD 19 STEP 30
SAVE HEAD
SAVE BUDGET
PRINT BUDGET
PERIOD 20 STEP 31
SAVE HEAD
SAVE BUDGET
PRINT BUDGET
PERIOD 21 STEP 30
SAVE HEAD
SAVE BUDGET
PRINT BUDGET
PERIOD 22 STEP 31
SAVE HEAD
SAVE BUDGET
PRINT BUDGET
PERIOD 23 STEP 31
SAVE HEAD
SAVE BUDGET
PRINT BUDGET
PERIOD 24 STEP 30
SAVE HEAD
SAVE BUDGET
PRINT BUDGET
PERIOD 25 STEP 31
SAVE HEAD
SAVE BUDGET
PRINT BUDGET
PERIOD 26 STEP 30
SAVE HEAD
SAVE BUDGET
PRINT BUDGET
PERIOD 27 STEP 31
SAVE HEAD
SAVE BUDGET
PRINT BUDGET
PERIOD 28 STEP 31
SAVE HEAD
SAVE BUDGET
PRINT BUDGET
PERIOD 29 STEP 28
SAVE HEAD
SAVE BUDGET
PRINT BUDGET
PERIOD 30 STEP 31
SAVE HEAD
SAVE BUDGET
PRINT BUDGET
PERIOD 31 STEP 30
SAVE HEAD
SAVE BUDGET
PRINT BUDGET
PERIOD 32 STEP 31
SAVE HEAD
SAVE BUDGET
PRINT BUDGET
PERIOD 33 STEP 30
SAVE HEAD
SAVE BUDGET
PRINT BUDGET
PERIOD 34 STEP 31
SAVE HEAD
SAVE BUDGET
PRINT BUDGET
PERIOD 35 STEP 31
SAVE HEAD
SAVE BUDGET
PRINT BUDGET
PERIOD 36 STEP 30
SAVE HEAD
SAVE BUDGET
PRINT BUDGET
PERIOD 37 STEP 31
SAVE HEAD
SAVE BUDGET
PRINT BUDGET
PERIOD 38 STEP 30
SAVE HEAD
SAVE BUDGET
PRINT BUDGET
PERIOD 39 STEP 31
SAVE HEAD
SAVE BUDGET
PRINT BUDGET
PERIOD 40 STEP 31
SAVE HEAD
SAVE BUDGET
PRINT BUDGET
PERIOD 41 STEP 28
SAVE HEAD
SAVE BUDGET
PRINT BUDGET
PERIOD 42 STEP 31
SAVE HEAD
SAVE BUDGET
PRINT BUDGET
PERIOD 43 STEP 30
SAVE HEAD
SAVE BUDGET
PRINT BUDGET
PERIOD 44 STEP 31
SAVE HEAD
SAVE BUDGET
PRINT BUDGET
PERIOD 45 STEP 30
SAVE HEAD
SAVE BUDGET
PRINT BUDGET
PERIOD 46 STEP 31
SAVE HEAD
SAVE BUDGET
PRINT BUDGET
PERIOD 47 STEP 31
SAVE HEAD
SAVE BUDGET
PRINT BUDGET
PERIOD 48 STEP 30
SAVE HEAD
SAVE BUDGET
PRINT BUDGET
PERIOD 49 STEP 31
SAVE HEAD
SAVE BUDGET
PRINT BUDGET
PERIOD 50 STEP 30
SAVE HEAD
SAVE BUDGET
PRINT BUDGET
PERIOD 51 STEP 31
SAVE HEAD
SAVE BUDGET
PRINT BUDGET
PERIOD 52 STEP 31
SAVE HEAD
SAVE BUDGET
PRINT BUDGET
PERIOD 53 STEP 29
SAVE HEAD
SAVE BUDGET
PRINT BUDGET
PERIOD 54 STEP 31
SAVE HEAD
SAVE BUDGET
PRINT BUDGET
PERIOD 55 STEP 30
SAVE HEAD
SAVE BUDGET
PRINT BUDGET
PERIOD 56 STEP 31
SAVE HEAD
SAVE BUDGET
PRINT BUDGET
PERIOD 57 STEP 30
SAVE HEAD
SAVE BUDGET
PRINT BUDGET
PERIOD 58 STEP 31
SAVE HEAD
SAVE BUDGET
PRINT BUDGET
PERIOD 59 STEP 31
SAVE HEAD
SAVE BUDGET
PRINT BUDGET
PERIOD 60 STEP 30
SAVE HEAD
SAVE BUDGET
PRINT BUDGET
PERIOD 61 STEP 31
SAVE HEAD
SAVE BUDGET
PRINT BUDGET
PERIOD 62 STEP 30
SAVE HEAD
SAVE BUDGET
PRINT BUDGET
PERIOD 63 STEP 31
SAVE HEAD
SAVE BUDGET
PRINT BUDGET
PERIOD 64 STEP 31
SAVE HEAD
SAVE BUDGET
PRINT BUDGET
PERIOD 65 STEP 28
SAVE HEAD
SAVE BUDGET
PRINT BUDGET
PERIOD 66 STEP 31
SAVE HEAD
SAVE BUDGET
PRINT BUDGET
PERIOD 67 STEP 30
SAVE HEAD
SAVE BUDGET
PRINT BUDGET
PERIOD 68 STEP 31
SAVE HEAD
SAVE BUDGET
PRINT BUDGET
PERIOD 69 STEP 30
SAVE HEAD
SAVE BUDGET
PRINT BUDGET
PERIOD 70 STEP 31
SAVE HEAD
SAVE BUDGET
PRINT BUDGET
PERIOD 71 STEP 31
SAVE HEAD
SAVE BUDGET
PRINT BUDGET
PERIOD 72 STEP 30
SAVE HEAD
SAVE BUDGET
PRINT BUDGET
PERIOD 73 STEP 31
SAVE HEAD
SAVE BUDGET
PRINT BUDGET
PERIOD 74 STEP 30
SAVE HEAD
SAVE BUDGET
PRINT BUDGET
PERIOD 75 STEP 31
SAVE HEAD
SAVE BUDGET
PRINT BUDGET
PERIOD 76 STEP 31
SAVE HEAD
SAVE BUDGET
PRINT BUDGET
PERIOD 77 STEP 28
SAVE HEAD
SAVE BUDGET
PRINT BUDGET
PERIOD 78 STEP 31
SAVE HEAD
SAVE BUDGET
PRINT BUDGET
PERIOD 79 STEP 30
SAVE HEAD
SAVE BUDGET
PRINT BUDGET
PERIOD 80 STEP 31
SAVE HEAD
SAVE BUDGET
PRINT BUDGET
PERIOD 81 STEP 30
SAVE HEAD
SAVE BUDGET
PRINT BUDGET
PERIOD 82 STEP 31
SAVE HEAD
SAVE BUDGET
PRINT BUDGET
PERIOD 83 STEP 31
SAVE HEAD
SAVE BUDGET
PRINT BUDGET
PERIOD 84 STEP 30
SAVE HEAD
SAVE BUDGET
PRINT BUDGET
PERIOD 85 STEP 31
SAVE HEAD
SAVE BUDGET
PRINT BUDGET
PERIOD 86 STEP 30
SAVE HEAD
SAVE BUDGET
PRINT BUDGET
PERIOD 87 STEP 31
SAVE HEAD
SAVE BUDGET
PRINT BUDGET
PERIOD 88 STEP 31
SAVE HEAD
SAVE BUDGET
PRINT BUDGET
PERIOD 89 STEP 28
SAVE HEAD
SAVE BUDGET
PRINT BUDGET
PERIOD 90 STEP 31
SAVE HEAD
SAVE BUDGET
PRINT BUDGET
PERIOD 91 STEP 30
SAVE HEAD
SAVE BUDGET
PRINT BUDGET
PERIOD 92 STEP 31
SAVE HEAD
SAVE BUDGET
PRINT BUDGET
PERIOD 93 STEP 30
SAVE HEAD
SAVE BUDGET
PRINT BUDGET
PERIOD 94 STEP 31
SAVE HEAD
SAVE BUDGET
PRINT BUDGET
PERIOD 95 STEP 31
SAVE HEAD
SAVE BUDGET
PRINT BUDGET
PERIOD 96 STEP 30
SAVE HEAD
SAVE BUDGET
PRINT BUDGET
PERIOD 97 STEP 31
SAVE HEAD
SAVE BUDGET
PRINT BUDGET
PERIOD 98 STEP 30
SAVE HEAD
SAVE BUDGET
PRINT BUDGET
PERIOD 99 STEP 31
SAVE HEAD
SAVE BUDGET
PRINT BUDGET
PERIOD 100 STEP 31
SAVE HEAD
SAVE BUDGET
PRINT BUDGET
PERIOD 101 STEP 29
SAVE HEAD
SAVE BUDGET
PRINT BUDGET
PERIOD 102 STEP 31
SAVE HEAD
SAVE BUDGET
PRINT BUDGET
PERIOD 103 STEP 30
SAVE HEAD
SAVE BUDGET
PRINT BUDGET
PERIOD 104 STEP 31
SAVE HEAD
SAVE BUDGET
PRINT BUDGET
PERIOD 105 STEP 30
SAVE HEAD
SAVE BUDGET
PRINT BUDGET
PERIOD 106 STEP 31
SAVE HEAD
SAVE BUDGET
PRINT BUDGET
PERIOD 107 STEP 31
SAVE HEAD
SAVE BUDGET
PRINT BUDGET
PERIOD 108 STEP 30
SAVE HEAD
SAVE BUDGET
PRINT BUDGET
PERIOD 109 STEP 31
SAVE HEAD
SAVE BUDGET
PRINT BUDGET
PERIOD 110 STEP 30
SAVE HEAD
SAVE BUDGET
PRINT BUDGET
PERIOD 111 STEP 31
SAVE HEAD
SAVE BUDGET
PRINT BUDGET
PERIOD 112 STEP 31
SAVE HEAD
SAVE BUDGET
PRINT BUDGET
PERIOD 113 STEP 28
SAVE HEAD
SAVE BUDGET
PRINT BUDGET
PERIOD 114 STEP 31
SAVE HEAD
SAVE BUDGET
PRINT BUDGET
PERIOD 115 STEP 30
SAVE HEAD
SAVE BUDGET
PRINT BUDGET
PERIOD 116 STEP 31
SAVE HEAD
SAVE BUDGET
PRINT BUDGET
PERIOD 117 STEP 30
SAVE HEAD
SAVE BUDGET
PRINT BUDGET
PERIOD 118 STEP 31
SAVE HEAD
SAVE BUDGET
PRINT BUDGET
PERIOD 119 STEP 31
SAVE HEAD
SAVE BUDGET
PRINT BUDGET
PERIOD 120 STEP 30
SAVE HEAD
SAVE BUDGET
PRINT BUDGET
PERIOD 121 STEP 31
SAVE HEAD
SAVE BUDGET
PRINT BUDGET
PERIOD 122 STEP 30
SAVE HEAD
SAVE BUDGET
PRINT BUDGET
PERIOD 123 STEP 31
SAVE HEAD
SAVE BUDGET
PRINT BUDGET
PERIOD 124 STEP 31
SAVE HEAD
SAVE BUDGET
PRINT BUDGET
PERIOD 125 STEP 28
SAVE HEAD
SAVE BUDGET
PRINT BUDGET
PERIOD 126 STEP 31
SAVE HEAD
SAVE BUDGET
PRINT BUDGET
PERIOD 127 STEP 30
SAVE HEAD
SAVE BUDGET
PRINT BUDGET
PERIOD 128 STEP 31
SAVE HEAD
SAVE BUDGET
PRINT BUDGET
PERIOD 129 STEP 30
SAVE HEAD
SAVE BUDGET
PRINT BUDGET
PERIOD 130 STEP 31
SAVE HEAD
SAVE BUDGET
PRINT BUDGET
PERIOD 131 STEP 31
SAVE HEAD
SAVE BUDGET
PRINT BUDGET
PERIOD 132 STEP 30
SAVE HEAD
SAVE BUDGET
PRINT BUDGET
PERIOD 133 STEP 31
SAVE HEAD
SAVE BUDGET
PRINT BUDGET
PERIOD 134 STEP 30
SAVE HEAD
SAVE BUDGET
PRINT BUDGET
PERIOD 135 STEP 31
SAVE HEAD
SAVE BUDGET
PRINT BUDGET
PERIOD 136 STEP 31
SAVE HEAD
SAVE BUDGET
PRINT BUDGET
PERIOD 137 STEP 28
SAVE HEAD
SAVE BUDGET
PRINT BUDGET
PERIOD 138 STEP 31
SAVE HEAD
SAVE BUDGET
PRINT BUDGET
PERIOD 139 STEP 30
SAVE HEAD
SAVE BUDGET
PRINT BUDGET
PERIOD 140 STEP 31
SAVE HEAD
SAVE BUDGET
PRINT BUDGET
PERIOD 141 STEP 30
SAVE HEAD
SAVE BUDGET
PRINT BUDGET
PERIOD 142 STEP 31
SAVE HEAD
SAVE BUDGET
PRINT BUDGET
PERIOD 143 STEP 31
SAVE HEAD
SAVE BUDGET
PRINT BUDGET
PERIOD 144 STEP 30
SAVE HEAD
SAVE BUDGET
PRINT BUDGET
PERIOD 145 STEP 31
SAVE HEAD
SAVE BUDGET
PRINT BUDGET
PERIOD 146 STEP 30
SAVE HEAD
SAVE BUDGET
PRINT BUDGET
PERIOD 147 STEP 31
SAVE HEAD
SAVE BUDGET
PRINT BUDGET
PERIOD 148 STEP 31
SAVE HEAD
SAVE BUDGET
PRINT BUDGET
PERIOD 149 STEP 29
SAVE HEAD
SAVE BUDGET
PRINT BUDGET
PERIOD 150 STEP 31
SAVE HEAD
SAVE BUDGET
PRINT BUDGET
PERIOD 151 STEP 30
SAVE HEAD
SAVE BUDGET
PRINT BUDGET
PERIOD 152 STEP 31
SAVE HEAD
SAVE BUDGET
PRINT BUDGET
PERIOD 153 STEP 30
SAVE HEAD
SAVE BUDGET
PRINT BUDGET
PERIOD 154 STEP 31
SAVE HEAD
SAVE BUDGET
PRINT BUDGET
PERIOD 155 STEP 31
SAVE HEAD
SAVE BUDGET
PRINT BUDGET
PERIOD 156 STEP 30
SAVE HEAD
SAVE BUDGET
PRINT BUDGET
PERIOD 157 STEP 31
SAVE HEAD
SAVE BUDGET
PRINT BUDGET
PERIOD 158 STEP 30
SAVE HEAD
SAVE BUDGET
PRINT BUDGET
PERIOD 159 STEP 31
SAVE HEAD
SAVE BUDGET
PRINT BUDGET
PERIOD 160 STEP 31
SAVE HEAD
SAVE BUDGET
PRINT BUDGET
PERIOD 161 STEP 28
SAVE HEAD
SAVE BUDGET
PRINT BUDGET
PERIOD 162 STEP 31
SAVE HEAD
SAVE BUDGET
PRINT BUDGET
PERIOD 163 STEP 30
SAVE HEAD
SAVE BUDGET
PRINT BUDGET
PERIOD 164 STEP 31
SAVE HEAD
SAVE BUDGET
PRINT BUDGET
PERIOD 165 STEP 30
SAVE HEAD
SAVE BUDGET
PRINT BUDGET
PERIOD 166 STEP 31
SAVE HEAD
SAVE BUDGET
PRINT BUDGET
PERIOD 167 STEP 31
SAVE HEAD
SAVE BUDGET
PRINT BUDGET
PERIOD 168 STEP 30
SAVE HEAD
SAVE BUDGET
PRINT BUDGET
PERIOD 169 STEP 31
SAVE HEAD
SAVE BUDGET
PRINT BUDGET
PERIOD 170 STEP 30
SAVE HEAD
SAVE BUDGET
PRINT BUDGET
PERIOD 171 STEP 31
SAVE HEAD
SAVE BUDGET
PRINT BUDGET
PERIOD 172 STEP 31
SAVE HEAD
SAVE BUDGET
PRINT BUDGET
PERIOD 173 STEP 28
SAVE HEAD
SAVE BUDGET
PRINT BUDGET
PERIOD 174 STEP 31
SAVE HEAD
SAVE BUDGET
PRINT BUDGET
PERIOD 175 STEP 30
SAVE HEAD
SAVE BUDGET
PRINT BUDGET
PERIOD 176 STEP 31
SAVE HEAD
SAVE BUDGET
PRINT BUDGET
PERIOD 177 STEP 30
SAVE HEAD
SAVE BUDGET
PRINT BUDGET
PERIOD 178 STEP 31
SAVE HEAD
SAVE BUDGET
PRINT BUDGET
PERIOD 179 STEP 31
SAVE HEAD
SAVE BUDGET
PRINT BUDGET
PERIOD 180 STEP 30
SAVE HEAD
SAVE BUDGET
PRINT BUDGET
PERIOD 181 STEP 31
SAVE HEAD
SAVE BUDGET
PRINT BUDGET
PERIOD 182 STEP 30
SAVE HEAD
SAVE BUDGET
PRINT BUDGET
PERIOD 183 STEP 31
SAVE HEAD
SAVE BUDGET
PRINT BUDGET
PERIOD 184 STEP 31
SAVE HEAD
SAVE BUDGET
PRINT BUDGET
PERIOD 185 STEP 28
SAVE HEAD
SAVE BUDGET
PRINT BUDGET
PERIOD 186 STEP 31
SAVE HEAD
SAVE BUDGET
PRINT BUDGET
PERIOD 187 STEP 30
SAVE HEAD
SAVE BUDGET
PRINT BUDGET
PERIOD 188 STEP 31
SAVE HEAD
SAVE BUDGET
PRINT BUDGET
PERIOD 189 STEP 30
SAVE HEAD
SAVE BUDGET
PRINT BUDGET
PERIOD 190 STEP 31
SAVE HEAD
SAVE BUDGET
PRINT BUDGET
PERIOD 191 STEP 31
SAVE HEAD
SAVE BUDGET
PRINT BUDGET
PERIOD 192 STEP 30
SAVE HEAD
SAVE BUDGET
PRINT BUDGET
PERIOD 193 STEP 31
SAVE HEAD
SAVE BUDGET
PRINT BUDGET
PERIOD 194 STEP 30
SAVE HEAD
SAVE BUDGET
PRINT BUDGET
PERIOD 195 STEP 31
SAVE HEAD
SAVE BUDGET
PRINT BUDGET
PERIOD 196 STEP 31
SAVE HEAD
SAVE BUDGET
PRINT BUDGET
PERIOD 197 STEP 29
SAVE HEAD
SAVE BUDGET
PRINT BUDGET
PERIOD 198 STEP 31
SAVE HEAD
SAVE BUDGET
PRINT BUDGET
PERIOD 199 STEP 30
SAVE HEAD
SAVE BUDGET
PRINT BUDGET
PERIOD 200 STEP 31
SAVE HEAD
SAVE BUDGET
PRINT BUDGET
PERIOD 201 STEP 30
SAVE HEAD
SAVE BUDGET
PRINT BUDGET
PERIOD 202 STEP 31
SAVE HEAD
SAVE BUDGET
PRINT BUDGET
PERIOD 203 STEP 31
SAVE HEAD
SAVE BUDGET
PRINT BUDGET
PERIOD 204 STEP 30
SAVE HEAD
SAVE BUDGET
PRINT BUDGET
PERIOD 205 STEP 31
SAVE HEAD
SAVE BUDGET
PRINT BUDGET
PERIOD 206 STEP 30
SAVE HEAD
SAVE BUDGET
PRINT BUDGET
PERIOD 207 STEP 31
SAVE HEAD
SAVE BUDGET
PRINT BUDGET
PERIOD 208 STEP 31
SAVE HEAD
SAVE BUDGET
PRINT BUDGET
PERIOD 209 STEP 28
SAVE HEAD
SAVE BUDGET
PRINT BUDGET
PERIOD 210 STEP 31
SAVE HEAD
SAVE BUDGET
PRINT BUDGET
PERIOD 211 STEP 30
SAVE HEAD
SAVE BUDGET
PRINT BUDGET
PERIOD 212 STEP 31
SAVE HEAD
SAVE BUDGET
PRINT BUDGET
PERIOD 213 STEP 30
SAVE HEAD
SAVE BUDGET
PRINT BUDGET
PERIOD 214 STEP 31
SAVE HEAD
SAVE BUDGET
PRINT BUDGET
PERIOD 215 STEP 31
SAVE HEAD
SAVE BUDGET
PRINT BUDGET
PERIOD 216 STEP 30
SAVE HEAD
SAVE BUDGET
PRINT BUDGET
PERIOD 217 STEP 31
SAVE HEAD
SAVE BUDGET
PRINT BUDGET
PERIOD 218 STEP 30
SAVE HEAD
SAVE BUDGET
PRINT BUDGET
PERIOD 219 STEP 31
SAVE HEAD
SAVE BUDGET
PRINT BUDGET
PERIOD 220 STEP 31
SAVE HEAD
SAVE BUDGET
PRINT BUDGET
PERIOD 221 STEP 28
SAVE HEAD
SAVE BUDGET
PRINT BUDGET
PERIOD 222 STEP 31
SAVE HEAD
SAVE BUDGET
PRINT BUDGET
PERIOD 223 STEP 30
SAVE HEAD
SAVE BUDGET
PRINT BUDGET
PERIOD 224 STEP 31
SAVE HEAD
SAVE BUDGET
PRINT BUDGET
PERIOD 225 STEP 30
SAVE HEAD
SAVE BUDGET
PRINT BUDGET
PERIOD 226 STEP 31
SAVE HEAD
SAVE BUDGET
PRINT BUDGET
PERIOD 227 STEP 31
SAVE HEAD
SAVE BUDGET
PRINT BUDGET
PERIOD 228 STEP 30
SAVE HEAD
SAVE BUDGET
PRINT BUDGET
PERIOD 229 STEP 31
SAVE HEAD
SAVE BUDGET
PRINT BUDGET
PERIOD 230 STEP 30
SAVE HEAD
SAVE BUDGET
PRINT BUDGET
PERIOD 231 STEP 31
SAVE HEAD
SAVE BUDGET
PRINT BUDGET
PERIOD 232 STEP 31
SAVE HEAD
SAVE BUDGET
PRINT BUDGET
PERIOD 233 STEP 28
SAVE HEAD
SAVE BUDGET
PRINT BUDGET
PERIOD 234 STEP 31
SAVE HEAD
SAVE BUDGET
PRINT BUDGET
PERIOD 235 STEP 30
SAVE HEAD
SAVE BUDGET
PRINT BUDGET
PERIOD 236 STEP 31
SAVE HEAD
SAVE BUDGET
PRINT BUDGET
PERIOD 237 STEP 30
SAVE HEAD
SAVE BUDGET
PRINT BUDGET
PERIOD 238 STEP 31
SAVE HEAD
SAVE BUDGET
PRINT BUDGET
PERIOD 239 STEP 31
SAVE HEAD
SAVE BUDGET
PRINT BUDGET
PERIOD 240 STEP 30
SAVE HEAD
SAVE BUDGET
PRINT BUDGET
PERIOD 241 STEP 31
SAVE HEAD
SAVE BUDGET
PRINT BUDGET
PERIOD 242 STEP 30
SAVE HEAD
SAVE BUDGET
PRINT BUDGET
PERIOD 243 STEP 31
SAVE HEAD
SAVE BUDGET
PRINT BUDGET
PERIOD 244 STEP 31
SAVE HEAD
SAVE BUDGET
PRINT BUDGET
PERIOD 245 STEP 29
SAVE HEAD
SAVE BUDGET
PRINT BUDGET
PERIOD 246 STEP 31
SAVE HEAD
SAVE BUDGET
PRINT BUDGET
PERIOD 247 STEP 30
SAVE HEAD
SAVE BUDGET
PRINT BUDGET
PERIOD 248 STEP 31
SAVE HEAD
SAVE BUDGET
PRINT BUDGET
PERIOD 249 STEP 30
SAVE HEAD
SAVE BUDGET
PRINT BUDGET
PERIOD 250 STEP 31
SAVE HEAD
SAVE BUDGET
PRINT BUDGET
PERIOD 251 STEP 31
SAVE HEAD
SAVE BUDGET
PRINT BUDGET
PERIOD 252 STEP 30
SAVE HEAD
SAVE BUDGET
PRINT BUDGET
