# MODFLOW-NWT Upstream Weighting (UPW) Package
# Data set created 2021-10-03 using MODFLOW Pre-Processing.R
#
50 -5555 41 1        # IUPWCB HDRY NPUPW IPHDRY
1  1  1  0  0  0  0  0  0  0  0  0      ! LAYTYP
0  0  0  0  0  0  0  0  0  0  0  0      ! LAYAVG
0  0  0  0  0  0  0  0  0  0  0  0      ! CHANI
-1  -1  -1  -1  -1  -1  -1  -1  -1  -1  -1  -1      ! LAYVKA
0  0  0  0  0  0  0  0  0  0  0  0      ! LAYWET
Kx_1 HK 1 12
1  NONE  LITHO1  1
2  NONE  LITHO2  1
3  NONE  LITHO3  1
4  NONE  LITHO4  1
5  NONE  LITHO5  1
6  NONE  LITHO6  1
7  NONE  LITHO7  1
8  NONE  LITHO8  1
9  NONE  LITHO9  1
10  NONE  LITHO10  1
11  NONE  LITHO11  1
12  NONE  LITHO12  1
Kx_2 HK 1 12
1  NONE  LITHO1  2
2  NONE  LITHO2  2
3  NONE  LITHO3  2
4  NONE  LITHO4  2
5  NONE  LITHO5  2
6  NONE  LITHO6  2
7  NONE  LITHO7  2
8  NONE  LITHO8  2
9  NONE  LITHO9  2
10  NONE  LITHO10  2
11  NONE  LITHO11  2
12  NONE  LITHO12  2
Kx_3 HK 1 12
1  NONE  LITHO1  3
2  NONE  LITHO2  3
3  NONE  LITHO3  3
4  NONE  LITHO4  3
5  NONE  LITHO5  3
6  NONE  LITHO6  3
7  NONE  LITHO7  3
8  NONE  LITHO8  3
9  NONE  LITHO9  3
10  NONE  LITHO10  3
11  NONE  LITHO11  3
12  NONE  LITHO12  3
Kx_4 HK 1 12
1  NONE  LITHO1  4
2  NONE  LITHO2  4
3  NONE  LITHO3  4
4  NONE  LITHO4  4
5  NONE  LITHO5  4
6  NONE  LITHO6  4
7  NONE  LITHO7  4
8  NONE  LITHO8  4
9  NONE  LITHO9  4
10  NONE  LITHO10  4
11  NONE  LITHO11  4
12  NONE  LITHO12  4
Kx_5 HK 1 12
1  NONE  LITHO1  5
2  NONE  LITHO2  5
3  NONE  LITHO3  5
4  NONE  LITHO4  5
5  NONE  LITHO5  5
6  NONE  LITHO6  5
7  NONE  LITHO7  5
8  NONE  LITHO8  5
9  NONE  LITHO9  5
10  NONE  LITHO10  5
11  NONE  LITHO11  5
12  NONE  LITHO12  5
Kx_6 HK 1 12
1  NONE  LITHO1  6
2  NONE  LITHO2  6
3  NONE  LITHO3  6
4  NONE  LITHO4  6
5  NONE  LITHO5  6
6  NONE  LITHO6  6
7  NONE  LITHO7  6
8  NONE  LITHO8  6
9  NONE  LITHO9  6
10  NONE  LITHO10  6
11  NONE  LITHO11  6
12  NONE  LITHO12  6
Kx_7 HK 1 12
1  NONE  LITHO1  7
2  NONE  LITHO2  7
3  NONE  LITHO3  7
4  NONE  LITHO4  7
5  NONE  LITHO5  7
6  NONE  LITHO6  7
7  NONE  LITHO7  7
8  NONE  LITHO8  7
9  NONE  LITHO9  7
10  NONE  LITHO10  7
11  NONE  LITHO11  7
12  NONE  LITHO12  7
Kx_8 HK 1 12
1  NONE  LITHO1  8
2  NONE  LITHO2  8
3  NONE  LITHO3  8
4  NONE  LITHO4  8
5  NONE  LITHO5  8
6  NONE  LITHO6  8
7  NONE  LITHO7  8
8  NONE  LITHO8  8
9  NONE  LITHO9  8
10  NONE  LITHO10  8
11  NONE  LITHO11  8
12  NONE  LITHO12  8
HANI_1 HANI 1 12
1  NONE  LITHO1  1
2  NONE  LITHO2  1
3  NONE  LITHO3  1
4  NONE  LITHO4  1
5  NONE  LITHO5  1
6  NONE  LITHO6  1
7  NONE  LITHO7  1
8  NONE  LITHO8  1
9  NONE  LITHO9  1
10  NONE  LITHO10  1
11  NONE  LITHO11  1
12  NONE  LITHO12  1
HANI_2 HANI 1 12
1  NONE  LITHO1  2
2  NONE  LITHO2  2
3  NONE  LITHO3  2
4  NONE  LITHO4  2
5  NONE  LITHO5  2
6  NONE  LITHO6  2
7  NONE  LITHO7  2
8  NONE  LITHO8  2
9  NONE  LITHO9  2
10  NONE  LITHO10  2
11  NONE  LITHO11  2
12  NONE  LITHO12  2
HANI_3 HANI 1 12
1  NONE  LITHO1  3
2  NONE  LITHO2  3
3  NONE  LITHO3  3
4  NONE  LITHO4  3
5  NONE  LITHO5  3
6  NONE  LITHO6  3
7  NONE  LITHO7  3
8  NONE  LITHO8  3
9  NONE  LITHO9  3
10  NONE  LITHO10  3
11  NONE  LITHO11  3
12  NONE  LITHO12  3
HANI_4 HANI 1 12
1  NONE  LITHO1  4
2  NONE  LITHO2  4
3  NONE  LITHO3  4
4  NONE  LITHO4  4
5  NONE  LITHO5  4
6  NONE  LITHO6  4
7  NONE  LITHO7  4
8  NONE  LITHO8  4
9  NONE  LITHO9  4
10  NONE  LITHO10  4
11  NONE  LITHO11  4
12  NONE  LITHO12  4
HANI_5 HANI 1 12
1  NONE  LITHO1  5
2  NONE  LITHO2  5
3  NONE  LITHO3  5
4  NONE  LITHO4  5
5  NONE  LITHO5  5
6  NONE  LITHO6  5
7  NONE  LITHO7  5
8  NONE  LITHO8  5
9  NONE  LITHO9  5
10  NONE  LITHO10  5
11  NONE  LITHO11  5
12  NONE  LITHO12  5
HANI_6 HANI 1 12
1  NONE  LITHO1  6
2  NONE  LITHO2  6
3  NONE  LITHO3  6
4  NONE  LITHO4  6
5  NONE  LITHO5  6
6  NONE  LITHO6  6
7  NONE  LITHO7  6
8  NONE  LITHO8  6
9  NONE  LITHO9  6
10  NONE  LITHO10  6
11  NONE  LITHO11  6
12  NONE  LITHO12  6
HANI_7 HANI 1 12
1  NONE  LITHO1  7
2  NONE  LITHO2  7
3  NONE  LITHO3  7
4  NONE  LITHO4  7
5  NONE  LITHO5  7
6  NONE  LITHO6  7
7  NONE  LITHO7  7
8  NONE  LITHO8  7
9  NONE  LITHO9  7
10  NONE  LITHO10  7
11  NONE  LITHO11  7
12  NONE  LITHO12  7
HANI_8 HANI 1 12
1  NONE  LITHO1  8
2  NONE  LITHO2  8
3  NONE  LITHO3  8
4  NONE  LITHO4  8
5  NONE  LITHO5  8
6  NONE  LITHO6  8
7  NONE  LITHO7  8
8  NONE  LITHO8  8
9  NONE  LITHO9  8
10  NONE  LITHO10  8
11  NONE  LITHO11  8
12  NONE  LITHO12  8
KVAR_1 VANI 1 12
1  NONE  LITHO1  1
2  NONE  LITHO2  1
3  NONE  LITHO3  1
4  NONE  LITHO4  1
5  NONE  LITHO5  1
6  NONE  LITHO6  1
7  NONE  LITHO7  1
8  NONE  LITHO8  1
9  NONE  LITHO9  1
10  NONE  LITHO10  1
11  NONE  LITHO11  1
12  NONE  LITHO12  1
KVAR_2 VANI 1 12
1  NONE  LITHO1  2
2  NONE  LITHO2  2
3  NONE  LITHO3  2
4  NONE  LITHO4  2
5  NONE  LITHO5  2
6  NONE  LITHO6  2
7  NONE  LITHO7  2
8  NONE  LITHO8  2
9  NONE  LITHO9  2
10  NONE  LITHO10  2
11  NONE  LITHO11  2
12  NONE  LITHO12  2
KVAR_3 VANI 1 12
1  NONE  LITHO1  3
2  NONE  LITHO2  3
3  NONE  LITHO3  3
4  NONE  LITHO4  3
5  NONE  LITHO5  3
6  NONE  LITHO6  3
7  NONE  LITHO7  3
8  NONE  LITHO8  3
9  NONE  LITHO9  3
10  NONE  LITHO10  3
11  NONE  LITHO11  3
12  NONE  LITHO12  3
KVAR_4 VANI 1 12
1  NONE  LITHO1  4
2  NONE  LITHO2  4
3  NONE  LITHO3  4
4  NONE  LITHO4  4
5  NONE  LITHO5  4
6  NONE  LITHO6  4
7  NONE  LITHO7  4
8  NONE  LITHO8  4
9  NONE  LITHO9  4
10  NONE  LITHO10  4
11  NONE  LITHO11  4
12  NONE  LITHO12  4
KVAR_5 VANI 1 12
1  NONE  LITHO1  5
2  NONE  LITHO2  5
3  NONE  LITHO3  5
4  NONE  LITHO4  5
5  NONE  LITHO5  5
6  NONE  LITHO6  5
7  NONE  LITHO7  5
8  NONE  LITHO8  5
9  NONE  LITHO9  5
10  NONE  LITHO10  5
11  NONE  LITHO11  5
12  NONE  LITHO12  5
KVAR_6 VANI 1 12
1  NONE  LITHO1  6
2  NONE  LITHO2  6
3  NONE  LITHO3  6
4  NONE  LITHO4  6
5  NONE  LITHO5  6
6  NONE  LITHO6  6
7  NONE  LITHO7  6
8  NONE  LITHO8  6
9  NONE  LITHO9  6
10  NONE  LITHO10  6
11  NONE  LITHO11  6
12  NONE  LITHO12  6
KVAR_7 VANI 1 12
1  NONE  LITHO1  7
2  NONE  LITHO2  7
3  NONE  LITHO3  7
4  NONE  LITHO4  7
5  NONE  LITHO5  7
6  NONE  LITHO6  7
7  NONE  LITHO7  7
8  NONE  LITHO8  7
9  NONE  LITHO9  7
10  NONE  LITHO10  7
11  NONE  LITHO11  7
12  NONE  LITHO12  7
KVAR_8 VANI 1 12
1  NONE  LITHO1  8
2  NONE  LITHO2  8
3  NONE  LITHO3  8
4  NONE  LITHO4  8
5  NONE  LITHO5  8
6  NONE  LITHO6  8
7  NONE  LITHO7  8
8  NONE  LITHO8  8
9  NONE  LITHO9  8
10  NONE  LITHO10  8
11  NONE  LITHO11  8
12  NONE  LITHO12  8
Sy_1 SY 1 12
1  NONE  LITHO1 1
2  NONE  LITHO2 1
3  NONE  LITHO3 1
4  NONE  LITHO4 1
5  NONE  LITHO5 1
6  NONE  LITHO6 1
7  NONE  LITHO7 1
8  NONE  LITHO8 1
9  NONE  LITHO9 1
10  NONE  LITHO10 1
11  NONE  LITHO11 1
12  NONE  LITHO12 1
Sy_2 SY 1 12
1  NONE  LITHO1 2
2  NONE  LITHO2 2
3  NONE  LITHO3 2
4  NONE  LITHO4 2
5  NONE  LITHO5 2
6  NONE  LITHO6 2
7  NONE  LITHO7 2
8  NONE  LITHO8 2
9  NONE  LITHO9 2
10  NONE  LITHO10 2
11  NONE  LITHO11 2
12  NONE  LITHO12 2
Sy_3 SY 1 12
1  NONE  LITHO1 3
2  NONE  LITHO2 3
3  NONE  LITHO3 3
4  NONE  LITHO4 3
5  NONE  LITHO5 3
6  NONE  LITHO6 3
7  NONE  LITHO7 3
8  NONE  LITHO8 3
9  NONE  LITHO9 3
10  NONE  LITHO10 3
11  NONE  LITHO11 3
12  NONE  LITHO12 3
Sy_4 SY 1 12
1  NONE  LITHO1 4
2  NONE  LITHO2 4
3  NONE  LITHO3 4
4  NONE  LITHO4 4
5  NONE  LITHO5 4
6  NONE  LITHO6 4
7  NONE  LITHO7 4
8  NONE  LITHO8 4
9  NONE  LITHO9 4
10  NONE  LITHO10 4
11  NONE  LITHO11 4
12  NONE  LITHO12 4
Sy_5 SY 1 12
1  NONE  LITHO1 5
2  NONE  LITHO2 5
3  NONE  LITHO3 5
4  NONE  LITHO4 5
5  NONE  LITHO5 5
6  NONE  LITHO6 5
7  NONE  LITHO7 5
8  NONE  LITHO8 5
9  NONE  LITHO9 5
10  NONE  LITHO10 5
11  NONE  LITHO11 5
12  NONE  LITHO12 5
Sy_6 SY 1 12
1  NONE  LITHO1 6
2  NONE  LITHO2 6
3  NONE  LITHO3 6
4  NONE  LITHO4 6
5  NONE  LITHO5 6
6  NONE  LITHO6 6
7  NONE  LITHO7 6
8  NONE  LITHO8 6
9  NONE  LITHO9 6
10  NONE  LITHO10 6
11  NONE  LITHO11 6
12  NONE  LITHO12 6
Sy_7 SY 1 12
1  NONE  LITHO1 7
2  NONE  LITHO2 7
3  NONE  LITHO3 7
4  NONE  LITHO4 7
5  NONE  LITHO5 7
6  NONE  LITHO6 7
7  NONE  LITHO7 7
8  NONE  LITHO8 7
9  NONE  LITHO9 7
10  NONE  LITHO10 7
11  NONE  LITHO11 7
12  NONE  LITHO12 7
Sy_8 SY 1 12
1  NONE  LITHO1 8
2  NONE  LITHO2 8
3  NONE  LITHO3 8
4  NONE  LITHO4 8
5  NONE  LITHO5 8
6  NONE  LITHO6 8
7  NONE  LITHO7 8
8  NONE  LITHO8 8
9  NONE  LITHO9 8
10  NONE  LITHO10 8
11  NONE  LITHO11 8
12  NONE  LITHO12 8
Ss_1 SS 1 12
1  NONE  LITHO1  1
2  NONE  LITHO2  1
3  NONE  LITHO3  1
4  NONE  LITHO4  1
5  NONE  LITHO5  1
6  NONE  LITHO6  1
7  NONE  LITHO7  1
8  NONE  LITHO8  1
9  NONE  LITHO9  1
10  NONE  LITHO10  1
11  NONE  LITHO11  1
12  NONE  LITHO12  1
Ss_2 SS 1 12
1  NONE  LITHO1  2
2  NONE  LITHO2  2
3  NONE  LITHO3  2
4  NONE  LITHO4  2
5  NONE  LITHO5  2
6  NONE  LITHO6  2
7  NONE  LITHO7  2
8  NONE  LITHO8  2
9  NONE  LITHO9  2
10  NONE  LITHO10  2
11  NONE  LITHO11  2
12  NONE  LITHO12  2
Ss_3 SS 1 12
1  NONE  LITHO1  3
2  NONE  LITHO2  3
3  NONE  LITHO3  3
4  NONE  LITHO4  3
5  NONE  LITHO5  3
6  NONE  LITHO6  3
7  NONE  LITHO7  3
8  NONE  LITHO8  3
9  NONE  LITHO9  3
10  NONE  LITHO10  3
11  NONE  LITHO11  3
12  NONE  LITHO12  3
Ss_4 SS 1 12
1  NONE  LITHO1  4
2  NONE  LITHO2  4
3  NONE  LITHO3  4
4  NONE  LITHO4  4
5  NONE  LITHO5  4
6  NONE  LITHO6  4
7  NONE  LITHO7  4
8  NONE  LITHO8  4
9  NONE  LITHO9  4
10  NONE  LITHO10  4
11  NONE  LITHO11  4
12  NONE  LITHO12  4
Ss_5 SS 1 12
1  NONE  LITHO1  5
2  NONE  LITHO2  5
3  NONE  LITHO3  5
4  NONE  LITHO4  5
5  NONE  LITHO5  5
6  NONE  LITHO6  5
7  NONE  LITHO7  5
8  NONE  LITHO8  5
9  NONE  LITHO9  5
10  NONE  LITHO10  5
11  NONE  LITHO11  5
12  NONE  LITHO12  5
Ss_6 SS 1 12
1  NONE  LITHO1  6
2  NONE  LITHO2  6
3  NONE  LITHO3  6
4  NONE  LITHO4  6
5  NONE  LITHO5  6
6  NONE  LITHO6  6
7  NONE  LITHO7  6
8  NONE  LITHO8  6
9  NONE  LITHO9  6
10  NONE  LITHO10  6
11  NONE  LITHO11  6
12  NONE  LITHO12  6
Ss_7 SS 1 12
1  NONE  LITHO1  7
2  NONE  LITHO2  7
3  NONE  LITHO3  7
4  NONE  LITHO4  7
5  NONE  LITHO5  7
6  NONE  LITHO6  7
7  NONE  LITHO7  7
8  NONE  LITHO8  7
9  NONE  LITHO9  7
10  NONE  LITHO10  7
11  NONE  LITHO11  7
12  NONE  LITHO12  7
Ss_8 SS 1 12
1  NONE  LITHO1  8
2  NONE  LITHO2  8
3  NONE  LITHO3  8
4  NONE  LITHO4  8
5  NONE  LITHO5  8
6  NONE  LITHO6  8
7  NONE  LITHO7  8
8  NONE  LITHO8  8
9  NONE  LITHO9  8
10  NONE  LITHO10  8
11  NONE  LITHO11  8
12  NONE  LITHO12  8
CB_3  VKCB  1E-5  1
3 NONE  ALL
-1
-1
-1
-1
-1
-1
-1
-1
-1
-1
-1
-1
-1
-1
-1
-1
-1
-1
-1
-1
-1
-1
-1
-1
-1
-1
-1
-1
-1
-1
-1
-1
-1
-1
-1
-1
-1
-1
-1
-1
-1
-1
-1
-1
-1
-1
-1
-1
-1
-1
-1
-1
-1
-1
-1
-1
-1
-1
-1
-1
-1
-1
-1
-1
-1
-1
-1
-1
-1
-1
-1
-1
-1
-1
-1
-1
-1
-1
-1
-1
-1
-1
-1
-1
-1
-1
-1
-1
-1
-1
-1
-1
-1
-1
-1
-1
-1
-1
-1
-1
-1
-1
-1
-1
-1
-1
-1
-1
-1
-1
-1
-1
-1
-1
-1
-1
-1
-1
-1
-1
-1
-1
-1
-1
-1
-1
-1
-1
-1
-1
-1
-1
-1
-1
-1
-1
-1
-1
-1
-1
-1
-1
-1
-1
-1
-1
-1
-1
-1
-1
-1
-1
-1
-1
-1
-1
-1
-1
-1
-1
-1
-1
-1
-1
-1
-1
-1
-1
-1
-1
-1
-1
-1
-1
-1
-1
-1
-1
-1
-1
-1
-1
-1
-1
-1
-1
-1
-1
-1
-1
-1
-1
-1
-1
-1
-1
-1
-1
-1
-1
-1
-1
-1
-1
-1
-1
-1
-1
-1
-1
-1
-1
-1
-1
-1
-1
-1
-1
-1
-1
-1
-1
-1
-1
-1
-1
-1
-1
-1
-1
-1
-1
-1
-1
-1
-1
-1
-1
-1
-1
-1
-1
-1
-1
-1
-1
-1
-1
-1
-1
-1
-1
-1
-1
-1
-1
-1
-1
-1
-1
-1
-1
-1
-1
-1
-1
-1
-1
-1
-1
-1
-1
-1
-1
-1
-1
-1
-1
-1
-1
-1
-1
-1
-1
-1
-1
-1
-1
-1
-1
-1
-1
-1
-1
-1
-1
-1
-1
-1
-1
-1
-1
-1
-1
-1
-1
-1
-1
-1
-1
-1
-1
-1
-1
-1
-1
-1
-1
-1
-1
-1
-1
-1
-1
-1
-1
-1
-1
-1
-1
-1
-1
-1
-1
-1
-1
-1
-1
-1
-1
-1
-1
-1
-1
-1
-1
-1
-1
-1
-1
-1
-1
-1
-1
-1
-1
-1
-1
-1
-1
-1
-1
-1
-1
-1
-1
-1
-1
-1
-1
-1
-1
-1
-1
-1
-1
-1
-1
-1
-1
-1
-1
-1
-1
-1
-1
-1
-1
-1
-1
-1
-1
-1
-1
-1
-1
-1
-1
-1
-1
-1
-1
-1
-1
-1
-1
-1
-1
-1
-1
-1
-1
-1
-1
-1
-1
-1
-1
-1
-1
-1
-1
-1
-1
-1
-1
-1
-1
-1
-1
-1
-1
-1
-1
-1
-1
-1
-1
-1
-1
-1
-1
-1
-1
-1
-1
-1
-1
-1
-1
-1
-1
-1
-1
-1
-1
-1
-1
-1
-1
-1
-1
-1
-1
-1
-1
-1
-1
-1
-1
-1
-1
-1
-1
-1
-1
-1
-1
-1
-1
-1
