# Recharge (RCH) File
# Data set created 2021-10-03 using MODFLOW Pre-Processing.R
#
1  50
1
OPEN/CLOSE .\recharge\recharge_SP1.txt 1 (FREE) -1
1
OPEN/CLOSE .\recharge\recharge_SP2.txt 1 (FREE) -1
1
OPEN/CLOSE .\recharge\recharge_SP3.txt 1 (FREE) -1
1
OPEN/CLOSE .\recharge\recharge_SP4.txt 1 (FREE) -1
1
OPEN/CLOSE .\recharge\recharge_SP5.txt 1 (FREE) -1
1
OPEN/CLOSE .\recharge\recharge_SP6.txt 1 (FREE) -1
1
OPEN/CLOSE .\recharge\recharge_SP7.txt 1 (FREE) -1
1
OPEN/CLOSE .\recharge\recharge_SP8.txt 1 (FREE) -1
1
OPEN/CLOSE .\recharge\recharge_SP9.txt 1 (FREE) -1
1
OPEN/CLOSE .\recharge\recharge_SP10.txt 1 (FREE) -1
1
OPEN/CLOSE .\recharge\recharge_SP11.txt 1 (FREE) -1
1
OPEN/CLOSE .\recharge\recharge_SP12.txt 1 (FREE) -1
1
OPEN/CLOSE .\recharge\recharge_SP13.txt 1 (FREE) -1
1
OPEN/CLOSE .\recharge\recharge_SP14.txt 1 (FREE) -1
1
OPEN/CLOSE .\recharge\recharge_SP15.txt 1 (FREE) -1
1
OPEN/CLOSE .\recharge\recharge_SP16.txt 1 (FREE) -1
1
OPEN/CLOSE .\recharge\recharge_SP17.txt 1 (FREE) -1
1
OPEN/CLOSE .\recharge\recharge_SP18.txt 1 (FREE) -1
1
OPEN/CLOSE .\recharge\recharge_SP19.txt 1 (FREE) -1
1
OPEN/CLOSE .\recharge\recharge_SP20.txt 1 (FREE) -1
1
OPEN/CLOSE .\recharge\recharge_SP21.txt 1 (FREE) -1
1
OPEN/CLOSE .\recharge\recharge_SP22.txt 1 (FREE) -1
1
OPEN/CLOSE .\recharge\recharge_SP23.txt 1 (FREE) -1
1
OPEN/CLOSE .\recharge\recharge_SP24.txt 1 (FREE) -1
1
OPEN/CLOSE .\recharge\recharge_SP25.txt 1 (FREE) -1
1
OPEN/CLOSE .\recharge\recharge_SP26.txt 1 (FREE) -1
1
OPEN/CLOSE .\recharge\recharge_SP27.txt 1 (FREE) -1
1
OPEN/CLOSE .\recharge\recharge_SP28.txt 1 (FREE) -1
1
OPEN/CLOSE .\recharge\recharge_SP29.txt 1 (FREE) -1
1
OPEN/CLOSE .\recharge\recharge_SP30.txt 1 (FREE) -1
1
OPEN/CLOSE .\recharge\recharge_SP31.txt 1 (FREE) -1
1
OPEN/CLOSE .\recharge\recharge_SP32.txt 1 (FREE) -1
1
OPEN/CLOSE .\recharge\recharge_SP33.txt 1 (FREE) -1
1
OPEN/CLOSE .\recharge\recharge_SP34.txt 1 (FREE) -1
1
OPEN/CLOSE .\recharge\recharge_SP35.txt 1 (FREE) -1
1
OPEN/CLOSE .\recharge\recharge_SP36.txt 1 (FREE) -1
1
OPEN/CLOSE .\recharge\recharge_SP37.txt 1 (FREE) -1
1
OPEN/CLOSE .\recharge\recharge_SP38.txt 1 (FREE) -1
1
OPEN/CLOSE .\recharge\recharge_SP39.txt 1 (FREE) -1
1
OPEN/CLOSE .\recharge\recharge_SP40.txt 1 (FREE) -1
1
OPEN/CLOSE .\recharge\recharge_SP41.txt 1 (FREE) -1
1
OPEN/CLOSE .\recharge\recharge_SP42.txt 1 (FREE) -1
1
OPEN/CLOSE .\recharge\recharge_SP43.txt 1 (FREE) -1
1
OPEN/CLOSE .\recharge\recharge_SP44.txt 1 (FREE) -1
1
OPEN/CLOSE .\recharge\recharge_SP45.txt 1 (FREE) -1
1
OPEN/CLOSE .\recharge\recharge_SP46.txt 1 (FREE) -1
1
OPEN/CLOSE .\recharge\recharge_SP47.txt 1 (FREE) -1
1
OPEN/CLOSE .\recharge\recharge_SP48.txt 1 (FREE) -1
1
OPEN/CLOSE .\recharge\recharge_SP49.txt 1 (FREE) -1
1
OPEN/CLOSE .\recharge\recharge_SP50.txt 1 (FREE) -1
1
OPEN/CLOSE .\recharge\recharge_SP51.txt 1 (FREE) -1
1
OPEN/CLOSE .\recharge\recharge_SP52.txt 1 (FREE) -1
1
OPEN/CLOSE .\recharge\recharge_SP53.txt 1 (FREE) -1
1
OPEN/CLOSE .\recharge\recharge_SP54.txt 1 (FREE) -1
1
OPEN/CLOSE .\recharge\recharge_SP55.txt 1 (FREE) -1
1
OPEN/CLOSE .\recharge\recharge_SP56.txt 1 (FREE) -1
1
OPEN/CLOSE .\recharge\recharge_SP57.txt 1 (FREE) -1
1
OPEN/CLOSE .\recharge\recharge_SP58.txt 1 (FREE) -1
1
OPEN/CLOSE .\recharge\recharge_SP59.txt 1 (FREE) -1
1
OPEN/CLOSE .\recharge\recharge_SP60.txt 1 (FREE) -1
1
OPEN/CLOSE .\recharge\recharge_SP61.txt 1 (FREE) -1
1
OPEN/CLOSE .\recharge\recharge_SP62.txt 1 (FREE) -1
1
OPEN/CLOSE .\recharge\recharge_SP63.txt 1 (FREE) -1
1
OPEN/CLOSE .\recharge\recharge_SP64.txt 1 (FREE) -1
1
OPEN/CLOSE .\recharge\recharge_SP65.txt 1 (FREE) -1
1
OPEN/CLOSE .\recharge\recharge_SP66.txt 1 (FREE) -1
1
OPEN/CLOSE .\recharge\recharge_SP67.txt 1 (FREE) -1
1
OPEN/CLOSE .\recharge\recharge_SP68.txt 1 (FREE) -1
1
OPEN/CLOSE .\recharge\recharge_SP69.txt 1 (FREE) -1
1
OPEN/CLOSE .\recharge\recharge_SP70.txt 1 (FREE) -1
1
OPEN/CLOSE .\recharge\recharge_SP71.txt 1 (FREE) -1
1
OPEN/CLOSE .\recharge\recharge_SP72.txt 1 (FREE) -1
1
OPEN/CLOSE .\recharge\recharge_SP73.txt 1 (FREE) -1
1
OPEN/CLOSE .\recharge\recharge_SP74.txt 1 (FREE) -1
1
OPEN/CLOSE .\recharge\recharge_SP75.txt 1 (FREE) -1
1
OPEN/CLOSE .\recharge\recharge_SP76.txt 1 (FREE) -1
1
OPEN/CLOSE .\recharge\recharge_SP77.txt 1 (FREE) -1
1
OPEN/CLOSE .\recharge\recharge_SP78.txt 1 (FREE) -1
1
OPEN/CLOSE .\recharge\recharge_SP79.txt 1 (FREE) -1
1
OPEN/CLOSE .\recharge\recharge_SP80.txt 1 (FREE) -1
1
OPEN/CLOSE .\recharge\recharge_SP81.txt 1 (FREE) -1
1
OPEN/CLOSE .\recharge\recharge_SP82.txt 1 (FREE) -1
1
OPEN/CLOSE .\recharge\recharge_SP83.txt 1 (FREE) -1
1
OPEN/CLOSE .\recharge\recharge_SP84.txt 1 (FREE) -1
1
OPEN/CLOSE .\recharge\recharge_SP85.txt 1 (FREE) -1
1
OPEN/CLOSE .\recharge\recharge_SP86.txt 1 (FREE) -1
1
OPEN/CLOSE .\recharge\recharge_SP87.txt 1 (FREE) -1
1
OPEN/CLOSE .\recharge\recharge_SP88.txt 1 (FREE) -1
1
OPEN/CLOSE .\recharge\recharge_SP89.txt 1 (FREE) -1
1
OPEN/CLOSE .\recharge\recharge_SP90.txt 1 (FREE) -1
1
OPEN/CLOSE .\recharge\recharge_SP91.txt 1 (FREE) -1
1
OPEN/CLOSE .\recharge\recharge_SP92.txt 1 (FREE) -1
1
OPEN/CLOSE .\recharge\recharge_SP93.txt 1 (FREE) -1
1
OPEN/CLOSE .\recharge\recharge_SP94.txt 1 (FREE) -1
1
OPEN/CLOSE .\recharge\recharge_SP95.txt 1 (FREE) -1
1
OPEN/CLOSE .\recharge\recharge_SP96.txt 1 (FREE) -1
1
OPEN/CLOSE .\recharge\recharge_SP97.txt 1 (FREE) -1
1
OPEN/CLOSE .\recharge\recharge_SP98.txt 1 (FREE) -1
1
OPEN/CLOSE .\recharge\recharge_SP99.txt 1 (FREE) -1
1
OPEN/CLOSE .\recharge\recharge_SP100.txt 1 (FREE) -1
1
OPEN/CLOSE .\recharge\recharge_SP101.txt 1 (FREE) -1
1
OPEN/CLOSE .\recharge\recharge_SP102.txt 1 (FREE) -1
1
OPEN/CLOSE .\recharge\recharge_SP103.txt 1 (FREE) -1
1
OPEN/CLOSE .\recharge\recharge_SP104.txt 1 (FREE) -1
1
OPEN/CLOSE .\recharge\recharge_SP105.txt 1 (FREE) -1
1
OPEN/CLOSE .\recharge\recharge_SP106.txt 1 (FREE) -1
1
OPEN/CLOSE .\recharge\recharge_SP107.txt 1 (FREE) -1
1
OPEN/CLOSE .\recharge\recharge_SP108.txt 1 (FREE) -1
1
OPEN/CLOSE .\recharge\recharge_SP109.txt 1 (FREE) -1
1
OPEN/CLOSE .\recharge\recharge_SP110.txt 1 (FREE) -1
1
OPEN/CLOSE .\recharge\recharge_SP111.txt 1 (FREE) -1
1
OPEN/CLOSE .\recharge\recharge_SP112.txt 1 (FREE) -1
1
OPEN/CLOSE .\recharge\recharge_SP113.txt 1 (FREE) -1
1
OPEN/CLOSE .\recharge\recharge_SP114.txt 1 (FREE) -1
1
OPEN/CLOSE .\recharge\recharge_SP115.txt 1 (FREE) -1
1
OPEN/CLOSE .\recharge\recharge_SP116.txt 1 (FREE) -1
1
OPEN/CLOSE .\recharge\recharge_SP117.txt 1 (FREE) -1
1
OPEN/CLOSE .\recharge\recharge_SP118.txt 1 (FREE) -1
1
OPEN/CLOSE .\recharge\recharge_SP119.txt 1 (FREE) -1
1
OPEN/CLOSE .\recharge\recharge_SP120.txt 1 (FREE) -1
1
OPEN/CLOSE .\recharge\recharge_SP121.txt 1 (FREE) -1
1
OPEN/CLOSE .\recharge\recharge_SP122.txt 1 (FREE) -1
1
OPEN/CLOSE .\recharge\recharge_SP123.txt 1 (FREE) -1
1
OPEN/CLOSE .\recharge\recharge_SP124.txt 1 (FREE) -1
1
OPEN/CLOSE .\recharge\recharge_SP125.txt 1 (FREE) -1
1
OPEN/CLOSE .\recharge\recharge_SP126.txt 1 (FREE) -1
1
OPEN/CLOSE .\recharge\recharge_SP127.txt 1 (FREE) -1
1
OPEN/CLOSE .\recharge\recharge_SP128.txt 1 (FREE) -1
1
OPEN/CLOSE .\recharge\recharge_SP129.txt 1 (FREE) -1
1
OPEN/CLOSE .\recharge\recharge_SP130.txt 1 (FREE) -1
1
OPEN/CLOSE .\recharge\recharge_SP131.txt 1 (FREE) -1
1
OPEN/CLOSE .\recharge\recharge_SP132.txt 1 (FREE) -1
1
OPEN/CLOSE .\recharge\recharge_SP133.txt 1 (FREE) -1
1
OPEN/CLOSE .\recharge\recharge_SP134.txt 1 (FREE) -1
1
OPEN/CLOSE .\recharge\recharge_SP135.txt 1 (FREE) -1
1
OPEN/CLOSE .\recharge\recharge_SP136.txt 1 (FREE) -1
1
OPEN/CLOSE .\recharge\recharge_SP137.txt 1 (FREE) -1
1
OPEN/CLOSE .\recharge\recharge_SP138.txt 1 (FREE) -1
1
OPEN/CLOSE .\recharge\recharge_SP139.txt 1 (FREE) -1
1
OPEN/CLOSE .\recharge\recharge_SP140.txt 1 (FREE) -1
1
OPEN/CLOSE .\recharge\recharge_SP141.txt 1 (FREE) -1
1
OPEN/CLOSE .\recharge\recharge_SP142.txt 1 (FREE) -1
1
OPEN/CLOSE .\recharge\recharge_SP143.txt 1 (FREE) -1
1
OPEN/CLOSE .\recharge\recharge_SP144.txt 1 (FREE) -1
1
OPEN/CLOSE .\recharge\recharge_SP145.txt 1 (FREE) -1
1
OPEN/CLOSE .\recharge\recharge_SP146.txt 1 (FREE) -1
1
OPEN/CLOSE .\recharge\recharge_SP147.txt 1 (FREE) -1
1
OPEN/CLOSE .\recharge\recharge_SP148.txt 1 (FREE) -1
1
OPEN/CLOSE .\recharge\recharge_SP149.txt 1 (FREE) -1
1
OPEN/CLOSE .\recharge\recharge_SP150.txt 1 (FREE) -1
1
OPEN/CLOSE .\recharge\recharge_SP151.txt 1 (FREE) -1
1
OPEN/CLOSE .\recharge\recharge_SP152.txt 1 (FREE) -1
1
OPEN/CLOSE .\recharge\recharge_SP153.txt 1 (FREE) -1
1
OPEN/CLOSE .\recharge\recharge_SP154.txt 1 (FREE) -1
1
OPEN/CLOSE .\recharge\recharge_SP155.txt 1 (FREE) -1
1
OPEN/CLOSE .\recharge\recharge_SP156.txt 1 (FREE) -1
1
OPEN/CLOSE .\recharge\recharge_SP157.txt 1 (FREE) -1
1
OPEN/CLOSE .\recharge\recharge_SP158.txt 1 (FREE) -1
1
OPEN/CLOSE .\recharge\recharge_SP159.txt 1 (FREE) -1
1
OPEN/CLOSE .\recharge\recharge_SP160.txt 1 (FREE) -1
1
OPEN/CLOSE .\recharge\recharge_SP161.txt 1 (FREE) -1
1
OPEN/CLOSE .\recharge\recharge_SP162.txt 1 (FREE) -1
1
OPEN/CLOSE .\recharge\recharge_SP163.txt 1 (FREE) -1
1
OPEN/CLOSE .\recharge\recharge_SP164.txt 1 (FREE) -1
1
OPEN/CLOSE .\recharge\recharge_SP165.txt 1 (FREE) -1
1
OPEN/CLOSE .\recharge\recharge_SP166.txt 1 (FREE) -1
1
OPEN/CLOSE .\recharge\recharge_SP167.txt 1 (FREE) -1
1
OPEN/CLOSE .\recharge\recharge_SP168.txt 1 (FREE) -1
1
OPEN/CLOSE .\recharge\recharge_SP169.txt 1 (FREE) -1
1
OPEN/CLOSE .\recharge\recharge_SP170.txt 1 (FREE) -1
1
OPEN/CLOSE .\recharge\recharge_SP171.txt 1 (FREE) -1
1
OPEN/CLOSE .\recharge\recharge_SP172.txt 1 (FREE) -1
1
OPEN/CLOSE .\recharge\recharge_SP173.txt 1 (FREE) -1
1
OPEN/CLOSE .\recharge\recharge_SP174.txt 1 (FREE) -1
1
OPEN/CLOSE .\recharge\recharge_SP175.txt 1 (FREE) -1
1
OPEN/CLOSE .\recharge\recharge_SP176.txt 1 (FREE) -1
1
OPEN/CLOSE .\recharge\recharge_SP177.txt 1 (FREE) -1
1
OPEN/CLOSE .\recharge\recharge_SP178.txt 1 (FREE) -1
1
OPEN/CLOSE .\recharge\recharge_SP179.txt 1 (FREE) -1
1
OPEN/CLOSE .\recharge\recharge_SP180.txt 1 (FREE) -1
1
OPEN/CLOSE .\recharge\recharge_SP181.txt 1 (FREE) -1
1
OPEN/CLOSE .\recharge\recharge_SP182.txt 1 (FREE) -1
1
OPEN/CLOSE .\recharge\recharge_SP183.txt 1 (FREE) -1
1
OPEN/CLOSE .\recharge\recharge_SP184.txt 1 (FREE) -1
1
OPEN/CLOSE .\recharge\recharge_SP185.txt 1 (FREE) -1
1
OPEN/CLOSE .\recharge\recharge_SP186.txt 1 (FREE) -1
1
OPEN/CLOSE .\recharge\recharge_SP187.txt 1 (FREE) -1
1
OPEN/CLOSE .\recharge\recharge_SP188.txt 1 (FREE) -1
1
OPEN/CLOSE .\recharge\recharge_SP189.txt 1 (FREE) -1
1
OPEN/CLOSE .\recharge\recharge_SP190.txt 1 (FREE) -1
1
OPEN/CLOSE .\recharge\recharge_SP191.txt 1 (FREE) -1
1
OPEN/CLOSE .\recharge\recharge_SP192.txt 1 (FREE) -1
1
OPEN/CLOSE .\recharge\recharge_SP193.txt 1 (FREE) -1
1
OPEN/CLOSE .\recharge\recharge_SP194.txt 1 (FREE) -1
1
OPEN/CLOSE .\recharge\recharge_SP195.txt 1 (FREE) -1
1
OPEN/CLOSE .\recharge\recharge_SP196.txt 1 (FREE) -1
1
OPEN/CLOSE .\recharge\recharge_SP197.txt 1 (FREE) -1
1
OPEN/CLOSE .\recharge\recharge_SP198.txt 1 (FREE) -1
1
OPEN/CLOSE .\recharge\recharge_SP199.txt 1 (FREE) -1
1
OPEN/CLOSE .\recharge\recharge_SP200.txt 1 (FREE) -1
1
OPEN/CLOSE .\recharge\recharge_SP201.txt 1 (FREE) -1
1
OPEN/CLOSE .\recharge\recharge_SP202.txt 1 (FREE) -1
1
OPEN/CLOSE .\recharge\recharge_SP203.txt 1 (FREE) -1
1
OPEN/CLOSE .\recharge\recharge_SP204.txt 1 (FREE) -1
1
OPEN/CLOSE .\recharge\recharge_SP205.txt 1 (FREE) -1
1
OPEN/CLOSE .\recharge\recharge_SP206.txt 1 (FREE) -1
1
OPEN/CLOSE .\recharge\recharge_SP207.txt 1 (FREE) -1
1
OPEN/CLOSE .\recharge\recharge_SP208.txt 1 (FREE) -1
1
OPEN/CLOSE .\recharge\recharge_SP209.txt 1 (FREE) -1
1
OPEN/CLOSE .\recharge\recharge_SP210.txt 1 (FREE) -1
1
OPEN/CLOSE .\recharge\recharge_SP211.txt 1 (FREE) -1
1
OPEN/CLOSE .\recharge\recharge_SP212.txt 1 (FREE) -1
1
OPEN/CLOSE .\recharge\recharge_SP213.txt 1 (FREE) -1
1
OPEN/CLOSE .\recharge\recharge_SP214.txt 1 (FREE) -1
1
OPEN/CLOSE .\recharge\recharge_SP215.txt 1 (FREE) -1
1
OPEN/CLOSE .\recharge\recharge_SP216.txt 1 (FREE) -1
1
OPEN/CLOSE .\recharge\recharge_SP217.txt 1 (FREE) -1
1
OPEN/CLOSE .\recharge\recharge_SP218.txt 1 (FREE) -1
1
OPEN/CLOSE .\recharge\recharge_SP219.txt 1 (FREE) -1
1
OPEN/CLOSE .\recharge\recharge_SP220.txt 1 (FREE) -1
1
OPEN/CLOSE .\recharge\recharge_SP221.txt 1 (FREE) -1
1
OPEN/CLOSE .\recharge\recharge_SP222.txt 1 (FREE) -1
1
OPEN/CLOSE .\recharge\recharge_SP223.txt 1 (FREE) -1
1
OPEN/CLOSE .\recharge\recharge_SP224.txt 1 (FREE) -1
1
OPEN/CLOSE .\recharge\recharge_SP225.txt 1 (FREE) -1
1
OPEN/CLOSE .\recharge\recharge_SP226.txt 1 (FREE) -1
1
OPEN/CLOSE .\recharge\recharge_SP227.txt 1 (FREE) -1
1
OPEN/CLOSE .\recharge\recharge_SP228.txt 1 (FREE) -1
1
OPEN/CLOSE .\recharge\recharge_SP229.txt 1 (FREE) -1
1
OPEN/CLOSE .\recharge\recharge_SP230.txt 1 (FREE) -1
1
OPEN/CLOSE .\recharge\recharge_SP231.txt 1 (FREE) -1
1
OPEN/CLOSE .\recharge\recharge_SP232.txt 1 (FREE) -1
1
OPEN/CLOSE .\recharge\recharge_SP233.txt 1 (FREE) -1
1
OPEN/CLOSE .\recharge\recharge_SP234.txt 1 (FREE) -1
1
OPEN/CLOSE .\recharge\recharge_SP235.txt 1 (FREE) -1
1
OPEN/CLOSE .\recharge\recharge_SP236.txt 1 (FREE) -1
1
OPEN/CLOSE .\recharge\recharge_SP237.txt 1 (FREE) -1
1
OPEN/CLOSE .\recharge\recharge_SP238.txt 1 (FREE) -1
1
OPEN/CLOSE .\recharge\recharge_SP239.txt 1 (FREE) -1
1
OPEN/CLOSE .\recharge\recharge_SP240.txt 1 (FREE) -1
1
OPEN/CLOSE .\recharge\recharge_SP241.txt 1 (FREE) -1
1
OPEN/CLOSE .\recharge\recharge_SP242.txt 1 (FREE) -1
1
OPEN/CLOSE .\recharge\recharge_SP243.txt 1 (FREE) -1
1
OPEN/CLOSE .\recharge\recharge_SP244.txt 1 (FREE) -1
1
OPEN/CLOSE .\recharge\recharge_SP245.txt 1 (FREE) -1
1
OPEN/CLOSE .\recharge\recharge_SP246.txt 1 (FREE) -1
1
OPEN/CLOSE .\recharge\recharge_SP247.txt 1 (FREE) -1
1
OPEN/CLOSE .\recharge\recharge_SP248.txt 1 (FREE) -1
1
OPEN/CLOSE .\recharge\recharge_SP249.txt 1 (FREE) -1
1
OPEN/CLOSE .\recharge\recharge_SP250.txt 1 (FREE) -1
1
OPEN/CLOSE .\recharge\recharge_SP251.txt 1 (FREE) -1
1
OPEN/CLOSE .\recharge\recharge_SP252.txt 1 (FREE) -1
