# MODFLOW-NWT Newton Solver (NWT) Package
# Data set created 2021-10-03 using MODFLOW Pre-Processing.R
#
0.05  500  100  0.001  2  0  0  COMPLEX  CONTINUE     ! HEADTOL FLUXTOL MAXITEROUT THICKFACT LINMETH IPRNWT IBOTAV OPTIONS
