# Well (WEL) Package
# Data set created 2021-10-13 using MODFLOW Pre-Processing.R
#
PARAMETER  6  3611
3611  50
SPECIFY  0.05  100
MFR_1  Q  9999  179
1  102  14  0.005587
1  103  14  0.005587
1  104  14  0.005587
1  105  13  0.005587
1  105  14  0.005587
1  106  13  0.005587
1  107  13  0.005587
1  108  13  0.005587
1  109  13  0.005587
1  110  13  0.005587
1  111  13  0.005587
1  112  13  0.005587
1  113  13  0.005587
1  114  13  0.005587
1  115  13  0.005587
1  116  13  0.005587
1  117  13  0.005587
1  117  14  0.005587
1  118  14  0.005587
1  118  15  0.005587
1  119  15  0.005587
1  119  16  0.005587
1  120  16  0.005587
1  121  15  0.005587
1  121  16  0.005587
1  122  14  0.005587
1  122  15  0.005587
1  123  14  0.005587
1  124  14  0.005587
1  125  14  0.005587
1  126  13  0.005587
1  126  14  0.005587
1  127  13  0.005587
1  128  13  0.005587
1  129  13  0.005587
1  130  8  0.005587
1  130  9  0.005587
1  130  13  0.005587
1  131  6  0.005587
1  131  9  0.005587
1  131  12  0.005587
1  131  13  0.005587
1  132  6  0.005587
1  132  13  0.005587
1  132  14  0.005587
1  132  15  0.005587
1  133  6  0.005587
1  133  15  0.005587
1  133  16  0.005587
1  133  17  0.005587
1  134  6  0.005587
1  134  7  0.005587
1  134  10  0.005587
1  134  17  0.005587
1  134  18  0.005587
1  135  7  0.005587
1  135  10  0.005587
1  135  18  0.005587
1  136  6  0.005587
1  136  7  0.005587
1  136  10  0.005587
1  136  11  0.005587
1  136  18  0.005587
1  137  6  0.005587
1  137  11  0.005587
1  137  12  0.005587
1  137  18  0.005587
1  138  5  0.005587
1  138  6  0.005587
1  138  12  0.005587
1  138  13  0.005587
1  138  14  0.005587
1  138  17  0.005587
1  138  18  0.005587
1  139  5  0.005587
1  139  14  0.005587
1  139  15  0.005587
1  139  16  0.005587
1  139  17  0.005587
1  140  5  0.005587
1  141  5  0.005587
1  142  5  0.005587
1  143  5  0.005587
1  144  5  0.005587
1  145  5  0.005587
1  145  6  0.005587
1  146  6  0.005587
1  147  6  0.005587
1  147  7  0.005587
1  148  7  0.005587
1  149  7  0.005587
1  150  6  0.005587
1  150  7  0.005587
1  151  5  0.005587
1  151  6  0.005587
1  152  5  0.005587
1  153  4  0.005587
1  153  5  0.005587
1  154  4  0.005587
1  155  4  0.005587
1  156  4  0.005587
1  157  4  0.005587
1  158  4  0.005587
1  159  4  0.005587
1  160  4  0.005587
1  161  4  0.005587
1  162  4  0.005587
1  163  4  0.005587
1  163  5  0.005587
1  164  5  0.005587
1  165  5  0.005587
1  166  2  0.005587
1  166  3  0.005587
1  166  4  0.005587
1  166  5  0.005587
1  167  1  0.005587
1  167  2  0.005587
1  168  1  0.005587
1  169  1  0.005587
1  170  1  0.005587
1  171  1  0.005587
1  172  1  0.005587
1  173  1  0.005587
1  173  2  0.005587
1  174  2  0.005587
1  174  5  0.005587
1  174  6  0.005587
1  174  7  0.005587
1  175  2  0.005587
1  175  3  0.005587
1  175  5  0.005587
1  175  7  0.005587
1  176  3  0.005587
1  176  4  0.005587
1  176  5  0.005587
1  176  7  0.005587
1  177  4  0.005587
1  177  6  0.005587
1  177  7  0.005587
1  178  7  0.005587
1  179  7  0.005587
1  179  8  0.005587
1  180  8  0.005587
1  181  7  0.005587
1  181  8  0.005587
1  182  6  0.005587
1  182  7  0.005587
1  183  7  0.005587
1  184  7  0.005587
1  184  8  0.005587
1  184  9  0.005587
1  185  9  0.005587
2  116  24  0.005587
3  123  28  0.005587
4  163  21  0.005587
4  164  21  0.005587
4  165  21  0.005587
4  165  22  0.005587
4  166  22  0.005587
4  167  22  0.005587
4  168  22  0.005587
5  161  21  0.005587
5  162  21  0.005587
5  163  21  0.005587
5  164  21  0.005587
5  165  21  0.005587
5  165  22  0.005587
7  156  20  0.005587
7  156  21  0.005587
7  172  24  0.005587
8  166  28  0.005587
8  167  27  0.005587
8  170  26  0.005587
8  171  26  0.005587
8  172  26  0.005587
8  173  26  0.005587
8  174  26  0.005587
8  175  26  0.005587
8  176  26  0.005587
MFR_2  Q  9999  498
1  11  90  0.002008
1  11  91  0.002008
1  11  92  0.002008
1  12  90  0.002008
1  12  94  0.002008
1  13  90  0.002008
1  13  91  0.002008
1  13  95  0.002008
1  13  96  0.002008
1  14  91  0.002008
1  15  91  0.002008
1  16  92  0.002008
1  17  93  0.002008
1  18  94  0.002008
1  19  95  0.002008
1  20  92  0.002008
1  20  93  0.002008
1  20  94  0.002008
1  20  95  0.002008
1  21  91  0.002008
1  21  92  0.002008
1  22  91  0.002008
1  23  91  0.002008
1  23  92  0.002008
1  23  98  0.002008
1  23  99  0.002008
1  23  101  0.002008
1  23  102  0.002008
1  24  92  0.002008
1  24  93  0.002008
1  24  97  0.002008
1  25  93  0.002008
1  25  97  0.002008
1  26  93  0.002008
1  27  93  0.002008
1  27  97  0.002008
1  28  92  0.002008
1  28  93  0.002008
1  28  97  0.002008
1  29  92  0.002008
1  29  93  0.002008
1  29  97  0.002008
1  30  93  0.002008
1  31  93  0.002008
1  31  96  0.002008
1  32  94  0.002008
1  32  96  0.002008
1  34  105  0.002008
1  35  106  0.002008
1  36  106  0.002008
1  39  103  0.002008
1  39  104  0.002008
1  39  106  0.002008
1  40  101  0.002008
1  40  102  0.002008
1  41  100  0.002008
1  41  101  0.002008
1  42  86  0.002008
1  42  87  0.002008
1  42  99  0.002008
1  42  100  0.002008
1  43  86  0.002008
1  43  87  0.002008
1  43  88  0.002008
1  43  89  0.002008
1  44  86  0.002008
1  44  89  0.002008
1  44  90  0.002008
1  44  91  0.002008
1  44  92  0.002008
1  44  95  0.002008
1  44  96  0.002008
1  44  97  0.002008
1  45  86  0.002008
1  45  92  0.002008
1  45  93  0.002008
1  45  95  0.002008
1  46  86  0.002008
1  47  86  0.002008
1  48  86  0.002008
1  49  86  0.002008
1  49  88  0.002008
1  49  89  0.002008
1  50  89  0.002008
1  50  90  0.002008
1  51  90  0.002008
1  52  34  0.002008
1  52  35  0.002008
1  52  90  0.002008
1  53  32  0.002008
1  53  33  0.002008
1  53  34  0.002008
1  53  35  0.002008
1  53  36  0.002008
1  53  89  0.002008
1  53  90  0.002008
1  54  31  0.002008
1  54  32  0.002008
1  54  36  0.002008
1  54  37  0.002008
1  54  88  0.002008
1  54  89  0.002008
1  55  30  0.002008
1  55  31  0.002008
1  55  37  0.002008
1  55  38  0.002008
1  55  83  0.002008
1  55  84  0.002008
1  55  87  0.002008
1  55  88  0.002008
1  56  30  0.002008
1  56  35  0.002008
1  56  36  0.002008
1  56  37  0.002008
1  56  38  0.002008
1  56  79  0.002008
1  56  80  0.002008
1  56  81  0.002008
1  56  82  0.002008
1  56  83  0.002008
1  56  85  0.002008
1  56  86  0.002008
1  56  87  0.002008
1  57  30  0.002008
1  57  34  0.002008
1  57  35  0.002008
1  57  78  0.002008
1  57  79  0.002008
1  58  29  0.002008
1  58  30  0.002008
1  58  33  0.002008
1  58  77  0.002008
1  58  78  0.002008
1  59  29  0.002008
1  59  32  0.002008
1  59  33  0.002008
1  59  75  0.002008
1  59  76  0.002008
1  59  77  0.002008
1  60  28  0.002008
1  60  29  0.002008
1  60  31  0.002008
1  60  32  0.002008
1  60  38  0.002008
1  60  39  0.002008
1  60  40  0.002008
1  60  41  0.002008
1  60  42  0.002008
1  60  74  0.002008
1  60  75  0.002008
1  61  26  0.002008
1  61  27  0.002008
1  61  28  0.002008
1  61  30  0.002008
1  61  31  0.002008
1  61  38  0.002008
1  61  42  0.002008
1  61  43  0.002008
1  61  71  0.002008
1  61  72  0.002008
1  61  73  0.002008
1  61  74  0.002008
1  62  25  0.002008
1  62  26  0.002008
1  62  28  0.002008
1  62  29  0.002008
1  62  30  0.002008
1  62  38  0.002008
1  62  43  0.002008
1  62  44  0.002008
1  62  69  0.002008
1  62  70  0.002008
1  62  71  0.002008
1  63  24  0.002008
1  63  25  0.002008
1  63  26  0.002008
1  63  27  0.002008
1  63  28  0.002008
1  63  38  0.002008
1  63  43  0.002008
1  63  68  0.002008
1  63  69  0.002008
1  64  24  0.002008
1  64  25  0.002008
1  64  26  0.002008
1  64  37  0.002008
1  64  38  0.002008
1  64  43  0.002008
1  64  44  0.002008
1  64  67  0.002008
1  64  68  0.002008
1  65  24  0.002008
1  65  25  0.002008
1  65  36  0.002008
1  65  37  0.002008
1  65  42  0.002008
1  65  43  0.002008
1  65  44  0.002008
1  65  65  0.002008
1  65  66  0.002008
1  65  67  0.002008
1  66  24  0.002008
1  66  25  0.002008
1  66  26  0.002008
1  66  27  0.002008
1  66  34  0.002008
1  66  35  0.002008
1  66  36  0.002008
1  66  38  0.002008
1  66  39  0.002008
1  66  40  0.002008
1  66  41  0.002008
1  66  42  0.002008
1  66  64  0.002008
1  66  65  0.002008
1  67  24  0.002008
1  67  25  0.002008
1  67  27  0.002008
1  67  28  0.002008
1  67  33  0.002008
1  67  34  0.002008
1  67  37  0.002008
1  67  38  0.002008
1  67  63  0.002008
1  67  64  0.002008
1  68  25  0.002008
1  68  26  0.002008
1  68  28  0.002008
1  68  29  0.002008
1  68  30  0.002008
1  68  32  0.002008
1  68  33  0.002008
1  68  36  0.002008
1  68  37  0.002008
1  68  61  0.002008
1  68  62  0.002008
1  68  63  0.002008
1  69  26  0.002008
1  69  30  0.002008
1  69  31  0.002008
1  69  32  0.002008
1  69  36  0.002008
1  69  57  0.002008
1  69  58  0.002008
1  69  59  0.002008
1  69  60  0.002008
1  69  61  0.002008
1  70  26  0.002008
1  70  27  0.002008
1  70  35  0.002008
1  70  36  0.002008
1  70  56  0.002008
1  70  57  0.002008
1  71  27  0.002008
1  71  28  0.002008
1  71  29  0.002008
1  71  34  0.002008
1  71  35  0.002008
1  71  55  0.002008
1  71  56  0.002008
1  72  29  0.002008
1  72  33  0.002008
1  72  34  0.002008
1  72  54  0.002008
1  72  55  0.002008
1  73  29  0.002008
1  73  32  0.002008
1  73  33  0.002008
1  73  53  0.002008
1  73  54  0.002008
1  74  29  0.002008
1  74  31  0.002008
1  74  32  0.002008
1  74  51  0.002008
1  74  52  0.002008
1  74  53  0.002008
1  75  28  0.002008
1  75  31  0.002008
1  75  48  0.002008
1  75  49  0.002008
1  75  50  0.002008
1  75  51  0.002008
1  76  28  0.002008
1  76  31  0.002008
1  76  46  0.002008
1  76  47  0.002008
1  76  48  0.002008
1  77  28  0.002008
1  77  31  0.002008
1  77  32  0.002008
1  77  42  0.002008
1  77  43  0.002008
1  77  44  0.002008
1  77  45  0.002008
1  77  46  0.002008
1  78  28  0.002008
1  78  29  0.002008
1  78  33  0.002008
1  78  34  0.002008
1  78  35  0.002008
1  78  36  0.002008
1  78  37  0.002008
1  78  38  0.002008
1  78  39  0.002008
1  78  40  0.002008
1  78  41  0.002008
1  78  42  0.002008
1  79  29  0.002008
1  79  30  0.002008
1  80  30  0.002008
1  80  31  0.002008
1  80  32  0.002008
1  81  32  0.002008
1  81  33  0.002008
1  81  34  0.002008
1  82  34  0.002008
1  82  35  0.002008
1  83  35  0.002008
1  83  36  0.002008
1  84  36  0.002008
1  85  36  0.002008
1  85  37  0.002008
1  86  37  0.002008
1  87  37  0.002008
1  88  37  0.002008
1  89  37  0.002008
1  90  36  0.002008
1  90  37  0.002008
1  91  36  0.002008
1  92  35  0.002008
1  92  36  0.002008
1  93  34  0.002008
1  93  35  0.002008
1  94  34  0.002008
1  95  28  0.002008
1  95  29  0.002008
1  95  30  0.002008
1  95  31  0.002008
1  95  32  0.002008
1  95  33  0.002008
1  95  34  0.002008
1  96  27  0.002008
1  96  28  0.002008
1  97  27  0.002008
1  98  15  0.002008
1  98  27  0.002008
1  98  28  0.002008
1  99  14  0.002008
1  99  15  0.002008
1  99  16  0.002008
1  99  17  0.002008
1  99  18  0.002008
1  99  19  0.002008
1  99  28  0.002008
1  100  14  0.002008
1  100  19  0.002008
1  100  28  0.002008
1  101  14  0.002008
1  101  20  0.002008
1  101  28  0.002008
1  102  14  0.002008
1  102  20  0.002008
1  102  28  0.002008
1  103  14  0.002008
1  103  21  0.002008
1  103  22  0.002008
1  103  27  0.002008
1  103  28  0.002008
1  104  22  0.002008
1  104  23  0.002008
1  104  24  0.002008
1  104  25  0.002008
1  104  26  0.002008
1  104  27  0.002008
2  27  106  0.002008
2  28  106  0.002008
2  29  106  0.002008
2  30  106  0.002008
2  31  106  0.002008
2  84  79  0.002008
2  85  79  0.002008
2  86  71  0.002008
2  86  72  0.002008
2  86  73  0.002008
2  86  74  0.002008
2  86  75  0.002008
2  86  76  0.002008
2  86  77  0.002008
2  86  78  0.002008
2  86  79  0.002008
2  105  21  0.002008
2  116  24  0.002008
2  116  26  0.002008
3  26  107  0.002008
3  27  107  0.002008
3  28  107  0.002008
3  29  107  0.002008
3  30  107  0.002008
3  31  107  0.002008
3  32  107  0.002008
3  33  107  0.002008
3  33  108  0.002008
3  34  108  0.002008
3  35  108  0.002008
3  36  108  0.002008
3  37  108  0.002008
3  38  108  0.002008
3  85  81  0.002008
3  85  82  0.002008
3  85  83  0.002008
3  86  80  0.002008
3  86  81  0.002008
3  87  72  0.002008
3  87  73  0.002008
3  87  74  0.002008
3  87  75  0.002008
3  87  76  0.002008
3  87  77  0.002008
3  87  78  0.002008
3  87  79  0.002008
3  87  80  0.002008
4  23  109  0.002008
4  24  109  0.002008
4  25  109  0.002008
4  26  109  0.002008
4  27  109  0.002008
4  30  108  0.002008
4  31  108  0.002008
4  32  108  0.002008
4  32  109  0.002008
4  33  109  0.002008
4  34  109  0.002008
4  35  109  0.002008
4  36  109  0.002008
4  37  109  0.002008
4  38  109  0.002008
4  88  74  0.002008
4  88  75  0.002008
4  88  76  0.002008
4  88  77  0.002008
4  88  78  0.002008
4  88  79  0.002008
4  88  80  0.002008
4  88  81  0.002008
4  89  74  0.002008
5  35  111  0.002008
5  36  111  0.002008
5  37  111  0.002008
5  38  110  0.002008
5  38  111  0.002008
5  39  110  0.002008
5  40  110  0.002008
5  41  110  0.002008
5  42  110  0.002008
5  43  110  0.002008
5  44  110  0.002008
6  46  111  0.002008
6  47  110  0.002008
6  47  111  0.002008
7  54  112  0.002008
7  55  112  0.002008
7  56  112  0.002008
7  57  112  0.002008
7  58  112  0.002008
7  59  112  0.002008
7  60  112  0.002008
7  61  112  0.002008
7  62  112  0.002008
7  63  111  0.002008
7  63  112  0.002008
8  60  112  0.002008
8  61  112  0.002008
8  62  112  0.002008
8  63  112  0.002008
8  64  112  0.002008
8  65  112  0.002008
8  66  112  0.002008
8  67  101  0.002008
8  67  112  0.002008
8  68  111  0.002008
8  68  112  0.002008
10  71  104  0.002008
10  72  103  0.002008
10  72  104  0.002008
10  73  102  0.002008
10  73  103  0.002008
10  74  101  0.002008
10  74  102  0.002008
10  75  100  0.002008
10  75  101  0.002008
10  76  100  0.002008
10  77  100  0.002008
10  78  100  0.002008
10  79  100  0.002008
10  80  100  0.002008
10  81  99  0.002008
10  81  100  0.002008
10  82  99  0.002008
MFR_3  Q  9999  554
1  1  131  0.001805
1  2  130  0.001805
1  2  133  0.001805
1  3  130  0.001805
1  3  134  0.001805
1  4  129  0.001805
1  4  130  0.001805
1  4  135  0.001805
1  5  129  0.001805
1  5  136  0.001805
1  6  129  0.001805
1  6  137  0.001805
1  7  129  0.001805
1  7  130  0.001805
1  7  138  0.001805
1  8  130  0.001805
1  8  140  0.001805
1  8  142  0.001805
1  8  143  0.001805
1  8  144  0.001805
1  8  145  0.001805
1  8  146  0.001805
1  9  130  0.001805
1  9  131  0.001805
1  9  142  0.001805
1  9  146  0.001805
1  10  131  0.001805
1  11  130  0.001805
1  11  131  0.001805
1  12  127  0.001805
1  12  128  0.001805
1  12  129  0.001805
1  12  130  0.001805
1  13  95  0.001805
1  13  96  0.001805
1  13  102  0.001805
1  13  103  0.001805
1  13  104  0.001805
1  13  105  0.001805
1  13  106  0.001805
1  13  124  0.001805
1  13  125  0.001805
1  13  126  0.001805
1  13  127  0.001805
1  13  146  0.001805
1  14  106  0.001805
1  14  107  0.001805
1  14  108  0.001805
1  14  124  0.001805
1  15  109  0.001805
1  15  123  0.001805
1  15  124  0.001805
1  15  146  0.001805
1  16  110  0.001805
1  16  111  0.001805
1  16  123  0.001805
1  16  147  0.001805
1  17  111  0.001805
1  17  123  0.001805
1  17  147  0.001805
1  18  112  0.001805
1  18  122  0.001805
1  18  123  0.001805
1  18  148  0.001805
1  18  149  0.001805
1  19  122  0.001805
1  19  149  0.001805
1  20  113  0.001805
1  20  121  0.001805
1  20  122  0.001805
1  20  149  0.001805
1  21  114  0.001805
1  21  121  0.001805
1  21  149  0.001805
1  22  115  0.001805
1  22  120  0.001805
1  22  121  0.001805
1  22  149  0.001805
1  23  115  0.001805
1  23  119  0.001805
1  23  120  0.001805
1  23  149  0.001805
1  23  155  0.001805
1  24  116  0.001805
1  24  117  0.001805
1  24  118  0.001805
1  24  119  0.001805
1  24  148  0.001805
1  24  154  0.001805
1  24  155  0.001805
1  24  156  0.001805
1  25  146  0.001805
1  25  153  0.001805
1  25  154  0.001805
1  25  156  0.001805
1  25  157  0.001805
1  26  145  0.001805
1  26  153  0.001805
1  26  157  0.001805
1  26  158  0.001805
1  27  153  0.001805
1  27  158  0.001805
1  28  144  0.001805
1  28  153  0.001805
1  28  158  0.001805
1  29  144  0.001805
1  29  153  0.001805
1  29  158  0.001805
1  30  144  0.001805
1  30  153  0.001805
1  30  158  0.001805
1  31  145  0.001805
1  31  153  0.001805
1  32  145  0.001805
1  32  146  0.001805
1  32  153  0.001805
1  32  157  0.001805
1  33  146  0.001805
1  33  147  0.001805
1  33  152  0.001805
1  33  153  0.001805
1  33  157  0.001805
1  34  147  0.001805
1  34  148  0.001805
1  34  149  0.001805
1  34  151  0.001805
1  34  152  0.001805
1  34  157  0.001805
1  35  149  0.001805
1  35  150  0.001805
1  35  151  0.001805
1  35  157  0.001805
1  36  157  0.001805
1  36  158  0.001805
1  36  161  0.001805
1  36  162  0.001805
1  37  158  0.001805
1  37  159  0.001805
1  37  160  0.001805
1  37  161  0.001805
2  7  132  0.001805
2  16  128  0.001805
2  16  129  0.001805
2  17  128  0.001805
2  31  156  0.001805
2  31  157  0.001805
2  32  155  0.001805
2  32  156  0.001805
2  32  157  0.001805
2  33  155  0.001805
2  33  156  0.001805
2  34  155  0.001805
2  34  156  0.001805
2  34  157  0.001805
2  35  155  0.001805
2  40  149  0.001805
2  40  150  0.001805
3  30  115  0.001805
3  43  141  0.001805
3  43  142  0.001805
3  44  142  0.001805
4  6  135  0.001805
4  7  135  0.001805
4  8  135  0.001805
4  9  135  0.001805
4  10  135  0.001805
4  11  135  0.001805
4  12  135  0.001805
4  13  135  0.001805
4  14  135  0.001805
4  15  135  0.001805
4  15  136  0.001805
4  15  137  0.001805
4  21  109  0.001805
4  22  109  0.001805
4  22  110  0.001805
4  23  110  0.001805
4  24  110  0.001805
4  25  110  0.001805
4  29  137  0.001805
4  30  136  0.001805
4  30  137  0.001805
4  31  136  0.001805
4  32  136  0.001805
4  33  136  0.001805
4  34  136  0.001805
4  35  136  0.001805
4  36  136  0.001805
4  37  136  0.001805
4  38  136  0.001805
4  39  136  0.001805
4  40  136  0.001805
4  41  136  0.001805
4  42  136  0.001805
4  43  136  0.001805
4  44  136  0.001805
4  45  136  0.001805
4  45  137  0.001805
4  46  137  0.001805
4  47  137  0.001805
4  48  137  0.001805
4  49  137  0.001805
4  54  138  0.001805
4  55  138  0.001805
5  14  135  0.001805
5  15  135  0.001805
5  16  135  0.001805
5  17  135  0.001805
5  18  135  0.001805
5  19  135  0.001805
5  19  137  0.001805
5  20  135  0.001805
5  20  137  0.001805
5  21  135  0.001805
5  21  136  0.001805
5  21  137  0.001805
5  23  137  0.001805
5  24  136  0.001805
5  25  136  0.001805
5  26  136  0.001805
5  27  136  0.001805
5  28  136  0.001805
5  29  136  0.001805
5  30  136  0.001805
5  31  136  0.001805
5  32  136  0.001805
5  33  136  0.001805
5  34  136  0.001805
5  35  111  0.001805
5  35  136  0.001805
5  36  136  0.001805
5  37  136  0.001805
5  38  136  0.001805
5  39  136  0.001805
5  40  136  0.001805
5  41  136  0.001805
5  42  136  0.001805
5  43  136  0.001805
5  44  136  0.001805
5  45  136  0.001805
5  46  136  0.001805
5  47  136  0.001805
5  48  136  0.001805
5  49  136  0.001805
5  50  136  0.001805
5  51  136  0.001805
5  52  136  0.001805
5  53  136  0.001805
5  54  136  0.001805
5  55  136  0.001805
5  55  137  0.001805
5  56  137  0.001805
5  56  138  0.001805
5  57  138  0.001805
6  44  136  0.001805
6  45  136  0.001805
6  46  111  0.001805
6  46  136  0.001805
6  47  111  0.001805
6  47  136  0.001805
6  48  111  0.001805
6  48  136  0.001805
6  49  111  0.001805
6  49  112  0.001805
6  49  136  0.001805
6  49  158  0.001805
6  50  112  0.001805
6  50  136  0.001805
6  50  157  0.001805
6  50  158  0.001805
6  51  112  0.001805
6  51  136  0.001805
6  51  158  0.001805
6  51  159  0.001805
6  52  136  0.001805
6  52  159  0.001805
6  52  160  0.001805
6  53  136  0.001805
6  53  160  0.001805
6  54  136  0.001805
6  55  136  0.001805
6  56  136  0.001805
6  57  136  0.001805
6  57  137  0.001805
6  57  160  0.001805
6  58  137  0.001805
6  58  138  0.001805
6  58  160  0.001805
6  59  138  0.001805
6  59  160  0.001805
6  60  138  0.001805
6  60  141  0.001805
6  60  142  0.001805
6  60  160  0.001805
6  61  138  0.001805
6  61  141  0.001805
6  61  142  0.001805
6  61  159  0.001805
6  61  160  0.001805
6  62  138  0.001805
6  62  142  0.001805
6  62  143  0.001805
6  62  144  0.001805
6  62  159  0.001805
6  63  138  0.001805
6  63  142  0.001805
6  63  143  0.001805
6  63  144  0.001805
6  63  145  0.001805
6  63  146  0.001805
6  63  157  0.001805
6  63  158  0.001805
6  63  159  0.001805
6  64  138  0.001805
6  64  139  0.001805
6  64  143  0.001805
6  64  146  0.001805
6  64  147  0.001805
6  64  148  0.001805
6  64  154  0.001805
6  64  155  0.001805
6  64  156  0.001805
6  64  157  0.001805
6  65  139  0.001805
6  65  140  0.001805
6  65  143  0.001805
6  65  144  0.001805
6  65  148  0.001805
6  65  149  0.001805
6  65  150  0.001805
6  65  151  0.001805
6  65  152  0.001805
6  65  153  0.001805
6  65  154  0.001805
6  66  140  0.001805
6  66  141  0.001805
6  66  144  0.001805
6  67  141  0.001805
6  67  144  0.001805
6  68  141  0.001805
6  68  142  0.001805
6  68  143  0.001805
6  68  144  0.001805
7  54  112  0.001805
7  54  131  0.001805
7  54  132  0.001805
7  54  133  0.001805
7  54  134  0.001805
7  54  135  0.001805
7  55  121  0.001805
7  55  122  0.001805
7  55  123  0.001805
7  55  124  0.001805
7  55  125  0.001805
7  55  126  0.001805
7  55  127  0.001805
7  55  128  0.001805
7  55  129  0.001805
7  55  130  0.001805
7  55  131  0.001805
7  55  135  0.001805
7  55  136  0.001805
7  56  120  0.001805
7  56  121  0.001805
7  56  136  0.001805
7  57  136  0.001805
7  58  136  0.001805
7  59  136  0.001805
7  60  136  0.001805
7  60  137  0.001805
7  61  137  0.001805
7  62  137  0.001805
7  63  137  0.001805
7  64  137  0.001805
7  65  137  0.001805
7  66  137  0.001805
7  66  138  0.001805
7  66  139  0.001805
7  66  140  0.001805
7  67  140  0.001805
7  68  140  0.001805
7  68  141  0.001805
7  69  141  0.001805
7  69  142  0.001805
7  70  142  0.001805
7  70  143  0.001805
7  70  146  0.001805
7  71  143  0.001805
7  71  144  0.001805
7  71  145  0.001805
7  71  146  0.001805
8  58  136  0.001805
8  59  136  0.001805
8  60  112  0.001805
8  60  136  0.001805
8  60  137  0.001805
8  61  119  0.001805
8  61  120  0.001805
8  61  136  0.001805
8  61  137  0.001805
8  62  119  0.001805
8  62  120  0.001805
8  62  121  0.001805
8  62  122  0.001805
8  62  123  0.001805
8  62  124  0.001805
8  62  125  0.001805
8  62  126  0.001805
8  62  127  0.001805
8  62  128  0.001805
8  62  129  0.001805
8  62  130  0.001805
8  62  136  0.001805
8  62  137  0.001805
8  63  130  0.001805
8  63  131  0.001805
8  63  132  0.001805
8  63  136  0.001805
8  63  137  0.001805
8  64  132  0.001805
8  64  136  0.001805
8  64  137  0.001805
8  65  132  0.001805
8  65  133  0.001805
8  65  136  0.001805
8  65  137  0.001805
8  66  133  0.001805
8  66  134  0.001805
8  66  135  0.001805
8  66  136  0.001805
8  66  137  0.001805
8  67  137  0.001805
8  68  137  0.001805
8  68  139  0.001805
8  68  146  0.001805
8  69  137  0.001805
8  69  139  0.001805
8  69  146  0.001805
8  70  137  0.001805
8  70  138  0.001805
8  70  139  0.001805
8  70  146  0.001805
8  70  147  0.001805
8  71  139  0.001805
8  71  140  0.001805
8  71  147  0.001805
8  72  140  0.001805
8  72  141  0.001805
8  72  147  0.001805
8  72  148  0.001805
8  73  141  0.001805
8  73  142  0.001805
8  73  148  0.001805
8  74  144  0.001805
8  74  148  0.001805
8  75  144  0.001805
8  75  145  0.001805
8  75  146  0.001805
8  75  148  0.001805
8  76  146  0.001805
8  76  147  0.001805
9  63  137  0.001805
9  64  137  0.001805
9  65  137  0.001805
9  66  112  0.001805
9  66  137  0.001805
9  67  112  0.001805
9  67  136  0.001805
9  67  137  0.001805
9  68  112  0.001805
9  68  113  0.001805
9  68  136  0.001805
9  68  137  0.001805
9  69  112  0.001805
9  69  135  0.001805
9  69  136  0.001805
9  69  137  0.001805
9  70  112  0.001805
9  70  135  0.001805
9  70  137  0.001805
9  71  112  0.001805
9  71  113  0.001805
9  71  135  0.001805
9  71  137  0.001805
9  72  109  0.001805
9  72  113  0.001805
9  72  135  0.001805
9  72  137  0.001805
9  73  111  0.001805
9  73  113  0.001805
9  73  135  0.001805
9  73  137  0.001805
9  74  111  0.001805
9  74  112  0.001805
9  74  113  0.001805
9  74  135  0.001805
9  74  137  0.001805
9  75  135  0.001805
9  75  137  0.001805
9  76  134  0.001805
9  76  135  0.001805
9  76  137  0.001805
9  77  134  0.001805
9  77  137  0.001805
9  77  139  0.001805
9  77  140  0.001805
9  77  141  0.001805
9  77  142  0.001805
9  78  133  0.001805
9  78  134  0.001805
9  78  137  0.001805
9  78  139  0.001805
9  79  133  0.001805
9  79  137  0.001805
9  79  139  0.001805
9  80  137  0.001805
9  80  139  0.001805
9  81  137  0.001805
9  81  138  0.001805
10  70  137  0.001805
10  71  104  0.001805
10  71  112  0.001805
10  71  113  0.001805
10  71  137  0.001805
10  72  103  0.001805
10  72  104  0.001805
10  72  113  0.001805
10  72  137  0.001805
10  73  103  0.001805
10  73  113  0.001805
10  73  137  0.001805
10  74  103  0.001805
10  74  113  0.001805
10  74  137  0.001805
10  75  102  0.001805
10  75  103  0.001805
10  75  113  0.001805
10  76  102  0.001805
10  76  113  0.001805
10  77  102  0.001805
10  77  113  0.001805
10  78  102  0.001805
10  78  104  0.001805
10  78  105  0.001805
10  78  106  0.001805
10  78  113  0.001805
10  79  102  0.001805
10  79  103  0.001805
10  79  104  0.001805
10  79  113  0.001805
10  80  113  0.001805
10  81  112  0.001805
10  81  113  0.001805
10  82  131  0.001805
MFR_4  Q  9999  569
1  36  161  0.001757
1  36  162  0.001757
1  36  163  0.001757
1  37  163  0.001757
1  37  164  0.001757
1  38  164  0.001757
1  38  165  0.001757
1  39  165  0.001757
1  39  166  0.001757
1  40  167  0.001757
1  41  168  0.001757
1  41  169  0.001757
1  41  170  0.001757
1  42  170  0.001757
1  42  171  0.001757
1  42  172  0.001757
1  42  173  0.001757
1  43  173  0.001757
1  43  174  0.001757
1  44  174  0.001757
1  44  175  0.001757
1  45  175  0.001757
1  45  176  0.001757
1  47  177  0.001757
1  48  178  0.001757
1  50  190  0.001757
1  50  191  0.001757
1  50  192  0.001757
1  50  193  0.001757
1  51  178  0.001757
1  51  190  0.001757
1  51  193  0.001757
1  51  194  0.001757
1  52  177  0.001757
1  52  194  0.001757
1  53  177  0.001757
1  53  189  0.001757
1  53  190  0.001757
1  53  194  0.001757
1  54  189  0.001757
1  54  211  0.001757
1  55  176  0.001757
1  55  188  0.001757
1  55  189  0.001757
1  55  208  0.001757
1  55  209  0.001757
1  55  210  0.001757
1  55  211  0.001757
1  55  212  0.001757
1  55  213  0.001757
1  55  214  0.001757
1  56  177  0.001757
1  56  184  0.001757
1  56  185  0.001757
1  56  186  0.001757
1  56  187  0.001757
1  56  188  0.001757
1  56  194  0.001757
1  56  203  0.001757
1  56  204  0.001757
1  56  205  0.001757
1  56  206  0.001757
1  56  207  0.001757
1  56  208  0.001757
1  56  214  0.001757
1  57  178  0.001757
1  57  182  0.001757
1  57  183  0.001757
1  57  184  0.001757
1  57  194  0.001757
1  57  203  0.001757
1  57  213  0.001757
1  57  214  0.001757
1  58  179  0.001757
1  58  180  0.001757
1  58  181  0.001757
1  58  182  0.001757
1  58  194  0.001757
1  58  202  0.001757
1  58  203  0.001757
1  59  202  0.001757
1  59  210  0.001757
1  60  193  0.001757
1  60  201  0.001757
1  60  202  0.001757
1  61  193  0.001757
1  61  201  0.001757
1  61  211  0.001757
1  61  212  0.001757
1  62  193  0.001757
1  62  201  0.001757
1  62  212  0.001757
1  63  201  0.001757
1  63  212  0.001757
1  64  192  0.001757
1  64  201  0.001757
1  64  212  0.001757
1  65  192  0.001757
1  65  201  0.001757
1  65  212  0.001757
1  66  200  0.001757
1  66  201  0.001757
1  66  213  0.001757
1  67  193  0.001757
1  67  199  0.001757
1  67  200  0.001757
1  67  213  0.001757
1  68  193  0.001757
1  68  194  0.001757
1  68  199  0.001757
1  68  213  0.001757
1  68  214  0.001757
1  69  194  0.001757
1  69  195  0.001757
1  69  196  0.001757
1  69  197  0.001757
1  69  198  0.001757
1  69  199  0.001757
1  69  214  0.001757
1  70  214  0.001757
1  71  214  0.001757
1  72  214  0.001757
1  72  239  0.001757
1  73  213  0.001757
1  73  238  0.001757
1  73  239  0.001757
1  74  213  0.001757
1  74  237  0.001757
1  74  238  0.001757
1  74  239  0.001757
1  74  240  0.001757
1  75  212  0.001757
1  75  236  0.001757
1  75  237  0.001757
1  75  240  0.001757
1  76  212  0.001757
1  76  236  0.001757
1  76  240  0.001757
1  77  212  0.001757
1  77  235  0.001757
1  77  236  0.001757
1  77  240  0.001757
1  78  234  0.001757
1  78  235  0.001757
1  78  240  0.001757
1  79  211  0.001757
1  79  234  0.001757
1  79  241  0.001757
1  80  210  0.001757
1  80  211  0.001757
1  80  234  0.001757
1  80  242  0.001757
1  81  210  0.001757
1  81  233  0.001757
1  81  234  0.001757
1  81  242  0.001757
1  81  243  0.001757
1  82  210  0.001757
1  82  232  0.001757
1  82  233  0.001757
1  82  243  0.001757
1  83  210  0.001757
1  83  211  0.001757
1  83  232  0.001757
1  83  242  0.001757
1  84  211  0.001757
1  84  231  0.001757
1  84  232  0.001757
1  84  242  0.001757
1  85  211  0.001757
1  85  212  0.001757
1  85  213  0.001757
1  85  224  0.001757
1  85  225  0.001757
1  85  226  0.001757
1  85  227  0.001757
1  85  229  0.001757
1  85  230  0.001757
1  85  231  0.001757
1  85  241  0.001757
1  86  213  0.001757
1  86  214  0.001757
1  86  215  0.001757
1  86  216  0.001757
1  86  217  0.001757
1  86  218  0.001757
1  86  219  0.001757
1  86  220  0.001757
1  86  221  0.001757
1  86  222  0.001757
1  86  223  0.001757
1  86  224  0.001757
1  86  227  0.001757
1  86  228  0.001757
1  86  229  0.001757
2  42  163  0.001757
2  42  164  0.001757
2  42  165  0.001757
2  42  166  0.001757
2  43  166  0.001757
2  43  167  0.001757
2  44  167  0.001757
2  44  168  0.001757
2  45  168  0.001757
2  45  169  0.001757
2  45  170  0.001757
2  45  171  0.001757
2  46  172  0.001757