#	Head	Observation	(HOB)	Package											
#	Data	set	created	10/3/2021	using	MODFLOW	Pre-Processing.R								
#															
4372	1279	9	31	-5555											
1															
11	1	179	25	-36	18	0.06	-0.35	1520.16							
1															
11_1	13	18	1520.16												
11_2	25	17	1519.43												
11_3	30	25	1520.16												
11_4	37	22	1519.31												
11_5	42	28	1520.19												
11_6	49	29	1519.25												
11_7	55	6	1519.98												
11_8	61	14	1519.12												
11_9	67	5	1520.25												
11_10	73	26	1519.46												
11_11	79	17	1520.37												
11_12	85	17	1519.28												
11_13	91	9	1520.01												
11_14	97	24	1519.49												
11_15	103	8	1519.92												
11_16	109	26	1519.39												
11_17	127	6	1520.28												
11_18	133	24	1519.7												
11_19	139	24	1520.09												
11_20	145	17	1519.63												
11_21	151	16	1520.12												
11_22	157	29	1519.14												
11_23	162	24	1520.36												
11_24	169	20	1519.08												
11_25	174	13	1519.94												
11_26	181	19	1519.08												
11_27	186	22	1519.87												
11_28	193	18	1519.04												
11_29	198	20	1520.49												
11_30	205	23	1519.7												
11_31	211	2	1520.16												
11_32	217	15	1519.31												
11_33	223	1	1520.24												
11_34	229	24	1519.18												
11_35	235	8	1520.4												
11_36	241	22	1519.32												
12	1	174	18	-38	18	-0.13	0.37	1534.45							
1															
12_1	13	18	1534.45												
12_2	18	26	1534.24												
12_3	30	25	1535.49												
12_4	37	22	1528.57												
12_5	42	26	1535.52												
12_6	49	29	1531.35												
12_7	55	6	1535.4												
12_8	61	14	1531.89												
12_9	67	5	1535.4												
12_10	73	26	1531.59												
12_11	79	17	1535.37												
12_12	85	17	1532.72												
12_13	91	9	1534.94												
12_14	97	24	1533.66												
12_15	103	8	1534.73												
12_16	109	26	1533.11												
12_17	115	12	1535.06												
12_18	121	27	1530.9												
12_19	127	6	1535.43												
12_20	133	24	1535.34												
12_21	139	24	1535.28												
12_22	145	17	1533.43												
12_23	151	16	1535.11												
12_24	157	29	1532.76												
12_25	162	24	1534.13												
12_26	169	20	1532.08												
12_27	174	13	1533.51												
12_28	181	19	1534.97												
12_29	186	22	1534.91												
12_30	193	18	1527.69												
12_31	198	20	1535.58												
12_32	205	23	1530.13												
12_33	211	2	1535.52												
12_34	217	15	1533.94												
12_35	223	1	1535.4												
12_36	229	24	1529.12												
12_37	235	8	1535.49												
12_38	241	22	1528.91												
31	1	144	51	-25	18	-0.2	0.23	1498.4							
1															
31_1	13	18	1498.4												
31_2	18	26	1498.37												
31_3	25	17	1497.7												
31_4	30	25	1497.6												
31_5	37	22	1497.85												
31_6	42	26	1499.04												
31_7	49	29	1497.67												
31_8	55	6	1499.77												
31_9	61	14	1498.12												
31_10	67	5	1500.26												
31_11	73	26	1498.43												
31_12	79	17	1501.2												
31_13	133	24	1498.45												
31_14	145	17	1498.98												
31_15	151	16	1499.39												
31_16	157	29	1498.27												
31_17	162	24	1499.64												
31_18	181	19	1497.88												
31_19	198	20	1500.1												
31_20	205	23	1498.81												
31_21	217	15	1499.13												
31_22	223	1	1501.58												
31_23	229	24	1499.16												
31_24	235	9	1500.84												
31_25	241	22	1498.76												
32	1	121	21	-4	18	0.11	-0.18	1501.55							
1															
32_1	13	18	1501.55												
32_2	18	26	1502.7												
32_3	25	17	1502.83												
32_4	30	25	1503.62												
36	-2	156	48	-10	18	-0.09	0.36	1499.95							
1	0.5	2	0.5												
1															
36_1	13	18	1499.95												
36_2	18	26	1499.92												
36_3	25	17	1499.65												
36_4	30	25	1499.8												
36_5	37	22	1499.59												
36_6	42	26	1500.02												
36_7	55	6	1499.89												
36_8	61	14	1499.44												
36_9	79	17	1500.38												
36_10	85	17	1499.8												
37	-2	144	131	-252	2	-0.28	-0.45	1484.07							
4	0.5	5	0.5												
1															
37_1	13	2	1484.07												
37_2	13	18	1486.81												
37_3	13	29	1488.14												
37_4	14	26	1490.55												
37_5	16	1	1492.44												
37_6	17	0	1493.57												
37_7	18	2	1494.59												
37_8	18	25	1495.14												
37_9	19	3	1495.25												
37_10	19	29	1493.03												
37_11	21	1	1480.96												
37_12	22	3	1476.09												
37_13	23	4	1474.89												
37_14	23	28	1472.45												
37_15	25	1	1478.26												
37_16	25	17	1482.79												
37_17	26	1	1485.17												
37_18	27	3	1488.43												
37_19	28	1	1490.29												
37_20	28	29	1491.57												
37_21	29	22	1492.57												
37_22	30	22	1493.57												
37_23	30	25	1493.64												
37_24	31	1	1493.92												
37_25	32	2	1494.36												
37_26	33	4	1481.99												
37_27	34	1	1477.07												
37_28	34	11	1473.36												
37_29	35	4	1474.28												
37_30	36	2	1470.38												
37_31	37	2	1478.82												
37_32	38	0	1484.62												
37_33	39	2	1487.95												
37_34	39	29	1489.78												
37_35	40	29	1491.28												
37_36	42	0	1492.4												
37_37	42	27	1493.22												
37_38	42	30	1493.29												
37_39	43	29	1494.08												
37_40	45	1	1481.73												
37_41	45	29	1482.64												
37_42	46	29	1476.18												
37_43	48	2	1475.96												
37_44	49	0	1480.44												
37_45	49	28	1483.98												
37_46	50	0	1485.35												
37_47	51	0	1488.49												
37_48	52	30	1491.75												
37_49	53	28	1492.82												
37_50	55	0	1493.7												
37_51	55	6	1493.86												
37_52	55	28	1491.78												
37_53	56	30	1479.93												
37_54	57	28	1477.21												
37_55	58	29	1473.74												
37_56	59	30	1473.37												
37_57	60	29	1476.88												
37_58	61	14	1480.99												
37_59	62	0	1484.1												
37_60	63	2	1487.18												
37_61	65	0	1490.62												
37_62	66	2	1491.75												
37_63	67	1	1492.76												
37_64	67	4	1492.88												
37_65	67	27	1493.31												
37_66	68	30	1492.7												
37_67	69	28	1485.93												
37_68	70	28	1480.57												
37_69	72	1	1477.24												
37_70	72	28	1482.94												
37_71	73	26	1486.39												
37_72	74	0	1486.88												
37_73	74	29	1488.73												
37_74	76	4	1490.56												
37_75	76	30	1491.54												
37_76	79	5	1493.4												
37_77	79	17	1493.76												
37_78	80	2	1494.1												
37_79	81	3	1494.46												
37_80	82	0	1485.99												
37_81	82	30	1479.16												
37_82	84	3	1476.09												
37_83	85	2	1483.43												
37_84	85	16	1485.81												
37_85	87	3	1489.86												
37_86	91	7	1493.92												
37_87	91	9	1493.86												
37_88	92	4	1491.84												
37_89	93	1	1477.27												
37_90	94	2	1474.71												
37_91	95	2	1471.42												
37_92	96	2	1470.17												
37_93	96	29	1475.78												
37_94	97	24	1481.39												
37_95	98	3	1483												
37_96	99	1	1485.93												
37_97	99	30	1488.25												
37_98	102	1	1490.65												
37_99	102	28	1491.57												
37_100	103	8	1491.75												
37_101	109	26	1481.08												
37_102	115	12	1491.23												
37_103	121	27	1482.85												
37_104	127	5	1491.1												
37_105	133	24	1483.25												
37_106	139	0	1492.82												
37_107	139	24	1492.63												
37_108	140	0	1492.82												
37_109	140	29	1490.41												
37_110	142	0	1487.36												
37_111	143	0	1477.46												
37_112	144	3	1471.36												
37_113	145	2	1478.98												
37_114	145	17	1482.79												
37_115	146	0	1485.38												
37_116	147	0	1487.82												
37_117	148	1	1489.65												
37_118	149	2	1490.11												
37_119	151	0	1492.7												
37_120	151	16	1493.15												
37_121	151	28	1492.7												
37_122	153	0	1480.66												
37_123	154	0	1475.08												
37_124	155	0	1472.73												
37_125	156	0	1471.36												
37_126	157	0	1470.9												
37_127	157	29	1477.78												
37_128	158	0	1478.83												
37_129	159	0	1480.05												
37_130	160	1	1486.57												
37_131	161	0	1487.97												
37_132	162	0	1488.95												
37_133	162	24	1489.72												
37_134	163	4	1490.26												
37_135	164	0	1481.72												
37_136	164	3	1481.72												
37_137	165	0	1476.85												
37_138	166	0	1473.65												
37_139	167	1	1464.35												
37_140	168	0	1464.35												
37_141	169	0	1470.14												
37_142	169	20	1475.67												
37_143	170	0	1478.28												
37_144	170	29	1481.85												
37_145	172	0	1484.62												
37_146	173	15	1487.21												
37_147	174	8	1488.06												
37_148	174	13	1488.41												
37_149	174	29	1488.28												
37_150	176	2	1480.26												
37_151	176	30	1470.6												
37_152	177	29	1466.55												
37_153	178	17	1463.65												
37_154	179	1	1466.82												
37_155	179	16	1468.86												
37_156	180	18	1467.09												
37_157	181	2	1470.29												
37_158	181	19	1474.07												
37_159	182	0	1477												
37_160	182	29	1480.81												
37_161	184	2	1484.01												
37_162	185	0	1485.75												
37_163	186	5	1487.21												
37_164	186	22	1487.74												
37_165	186	27	1487.42												
37_166	187	18	1484.47												
37_167	188	2	1478.52												
37_168	189	4	1475.54												
37_169	190	4	1469.38												
37_170	191	0	1470.6												
37_171	192	4	1468.16												
37_172	193	3	1470.51												
37_173	193	18	1475												
37_174	194	0	1477.46												
37_175	195	3	1481.63												
37_176	196	0	1483.55												
37_177	198	20	1487.39												
37_178	199	1	1487.82												
37_179	199	1	1487.82												
37_180	200	0	1488.58												
37_181	200	0	1488.58												
37_182	200	29	1488.8												
37_183	200	29	1488.8												
37_184	202	0	1472.43												
37_185	202	0	1472.43												
37_186	202	30	1469.07												
37_187	202	30	1469.07												
37_188	204	5	1469.99												
37_189	204	5	1469.99												
37_190	205	0	1472.12												
37_191	205	0	1472.12												
37_192	205	23	1477.97												
37_193	205	29	1479.35												
37_194	205	29	1479.35												
37_195	207	3	1483												
37_196	207	3	1483												
37_197	210	3	1487.82												
37_198	210	3	1487.82												
37_199	210	30	1489.04												
37_200	210	30	1489.04												
37_201	211	2	1489.19												
37_202	212	4	1490.11												
37_203	212	4	1490.11												
37_204	213	1	1485.93												
37_205	213	1	1485.93												
37_206	214	0	1477.15												
37_207	214	0	1477.15												
37_208	214	8	1472.88												
37_209	215	3	1470.23												
37_210	215	3	1470.23												
37_211	216	1	1472.43												
37_212	216	1	1472.43												
37_213	217	0	1479.13												
37_214	217	0	1479.13												
37_215	217	15	1481.24												
37_216	218	1	1483.22												
37_217	218	1	1483.22												
37_218	219	1	1486.14												
37_219	219	1	1486.27												
37_220	220	0	1487.61												
37_221	220	0	1487.61												
37_222	221	3	1488.89												
37_223	221	3	1488.89												
37_224	223	0	1490.93												
37_225	223	1	1490.8												
37_226	224	0	1491.42												
37_227	224	3	1491.42												
37_228	225	0	1490.78												
37_229	226	0	1478.58												
37_230	227	0	1474.26												
37_231	228	0	1472.37												
37_232	229	0	1476.85												
37_233	229	23	1481.89												
37_234	229	26	1482.36												
37_235	231	0	1485.93												
37_236	232	0	1487.88												
37_237	234	8	1490.41												
37_238	235	0	1491.02												
37_239	235	8	1491.34												
37_240	236	0	1491.78												
37_241	237	0	1490.26												
37_242	238	0	1481.48												
37_243	239	0	1474.62												
37_244	240	0	1474.01												
37_245	241	18	1479.83												
37_246	241	22	1483.34												
37_247	242	1	1479.9												
37_248	246	0	1491.02												
37_249	247	2	1491.78												
37_250	247	2	1491.78												
37_251	248	1	1490.56												
37_252	248	29	1479.9												
38	1	144	131	-196	2	-0.25	-0.47	1493.5							
1															
38_1	13	2	1493.5												
38_2	13	18	1493.49												
38_3	13	29	1493.46												
38_4	14	26	1493.46												
38_5	18	25	1493.49												
38_6	19	3	1493.49												
38_7	19	29	1493.5												
38_8	21	1	1493.51												
38_9	23	28	1493.48												
38_10	25	1	1493.44												
38_11	25	17	1493.43												
38_12	26	1	1493.39												
38_13	27	3	1493.4												
38_14	28	1	1493.44												
38_15	28	29	1493.44												
38_16	29	22	1493.43												
38_17	30	25	1493.43												
38_18	31	1	1493.41												
38_19	32	2	1493.38												
38_20	33	4	1493.39												
38_21	34	1	1493.39												
38_22	35	4	1493.36												
38_23	36	2	1493.31												
38_24	37	2	1493.25												
38_25	37	23	1493.15												
38_26	38	0	1493.18												
38_27	39	2	1493.2												
38_28	39	29	1493.25												
38_29	40	29	1493.26												
38_30	42	0	1493.25												
38_31	42	27	1493.25												
38_32	42	30	1493.24												
38_33	43	29	1493.26												
38_34	45	1	1493.25												
38_35	45	29	1493.25												
38_36	46	29	1493.25												
38_37	48	2	1493.22												
38_38	49	0	1493.18												
38_39	49	28	1492.82												
38_40	50	0	1493.12												
38_41	51	0	1493.09												
38_42	52	30	1493.22												
38_43	53	28	1493.25												
38_44	55	0	1493.25												
38_45	55	6	1493.18												
38_46	55	28	1493.22												
38_47	56	30	1493.22												
38_48	57	28	1493.22												
38_49	58	29	1493.15												
38_50	59	30	1493.12												
38_51	60	29	1493.09												
38_52	61	14	1493.03												
38_53	62	1	1493.31												
38_54	63	2	1493.06												
38_55	65	0	1493.22												
38_56	66	2	1493.15												
38_57	67	1	1493.22												
38_58	67	4	1493												
38_59	67	27	1493.18												
38_60	68	30	1493.12												
38_61	69	28	1493.12												
38_62	70	28	1493.12												
38_63	72	1	1493.12												
38_64	72	28	1493.03												
38_65	73	26	1492.97												
38_66	74	0	1493												
38_67	74	29	1492.97												
38_68	76	4	1493.22												
38_69	76	30	1493.22												
38_70	79	5	1493.25												
38_71	79	17	1493.22												
38_72	80	2	1493.25												
38_73	81	3	1493.18												
38_74	82	0	1493.15												
38_75	82	30	1493.15												
38_76	84	3	1493.15												
38_77	85	2	1493.09												
38_78	85	16	1493.09												
38_79	87	3	1493.06												
38_80	91	9	1493.14												
38_81	92	4	1493.15												
38_82	93	1	1493.15												
38_83	94	2	1493.15												
38_84	95	2	1493.15												
38_85	96	2	1493.15												
38_86	96	29	1493.09												
38_87	97	24	1493.03												
38_88	98	3	1493.03												
38_89	99	1	1493												
38_90	99	30	1493												
38_91	102	1	1493.15												
38_92	102	28	1493.12												
38_93	103	8	1493.12												
38_94	104	1	1493.06												
38_95	104	28	1493.06												
38_96	105	26	1493												
38_97	107	0	1493												
38_98	108	1	1493.03												
38_99	109	3	1493.03												
38_100	109	26	1492.97												
38_101	110	1	1493												
38_102	111	0	1493												
38_103	112	0	1493												
38_104	113	2	1493												
38_105	114	30	1493.03												
38_106	115	12	1492.97												
38_107	116	0	1493												
38_108	116	28	1493												
38_109	121	27	1492.85												
38_110	127	6	1492.95												
38_111	133	24	1492.77												
38_112	139	24	1492.95												
38_113	140	29	1492.85												
38_114	145	2	1492.79												
38_115	145	17	1492.82												
38_116	149	2	1492.94												
38_117	151	0	1492.94												
38_118	151	16	1492.98												
38_119	151	28	1492.94												
38_120	157	0	1492.94												
38_121	157	29	1492.93												
38_122	162	24	1493.12												
38_123	163	4	1493.15												
38_124	164	3	1493.06												
38_125	167	1	1493.06												
38_126	169	0	1492.94												
38_127	169	20	1492.97												
38_128	170	29	1493												
38_129	173	15	1493.06												
38_130	174	8	1493												
38_131	174	13	1492.85												
38_132	174	29	1493												
38_133	176	2	1493.09												
38_134	176	30	1492.94												
38_135	177	29	1493												
38_136	178	17	1492.94												
38_137	179	1	1492.94												
38_138	179	30	1492.94												
38_139	181	2	1492.94												
38_140	181	19	1492.92												
38_141	182	0	1492.94												
38_142	182	29	1493.09												
38_143	184	2	1492.94												
38_144	185	0	1492.94												
38_145	186	5	1492.94												
38_146	186	22	1492.96												
38_147	186	27	1492.94												
38_148	187	0	1492.94												
38_149	188	2	1492.88												
38_150	189	4	1492.18												
38_151	190	4	1492.03												
38_152	191	0	1492.79												
38_153	192	4	1492.79												
38_154	193	3	1493.09												
38_155	193	18	1492.83												
38_156	194	0	1492.79												
38_157	195	3	1492.94												
38_158	196	0	1492.94												
38_159	198	20	1493.05												
38_160	199	1	1493.06												
38_161	200	0	1492.97												
38_162	200	29	1492.94												
38_163	202	0	1492.88												
38_164	202	30	1492.82												
38_165	204	5	1492.79												
38_166	205	0	1492.79												
38_167	205	23	1492.86												
38_168	205	29	1492.85												
38_169	207	3	1492.91												
38_170	210	3	1493.09												
38_171	210	30	1493.09												
38_172	211	2	1493.03												
38_173	212	4	1493.09												
38_174	217	0	1492.64												
38_175	218	1	1492.79												
38_176	219	1	1492.94												
38_177	220	0	1492.94												
38_178	221	3	1492.94												
38_179	223	0	1493.09												
38_180	223	1	1493.09												
38_181	224	3	1493.25												
38_182	229	0	1492.88												
38_183	229	23	1492.91												
38_184	229	26	1492.94												
38_185	234	8	1493.15												
38_186	235	0	1493.15												
38_187	235	8	1493.14												
38_188	237	0	1493.25												
38_189	241	18	1492.94												
38_190	241	22	1492.97												
38_191	242	1	1492.94												
38_192	246	0	1493.09												
38_193	247	2	1493.25												
38_194	247	2	1493.25												
38_195	248	1	1493.25												
38_196	248	29	1493.18												
43	-4	132	110	-37	17	0.18	0.44	1477.52							
4	0.25	5	0.25	6	0.25  7  0.25 										
1															
43_1	13	17	1477.52												
43_2	18	26	1486.72												
43_3	25	17	1473.25												
43_4	30	25	1484.77												
43_5	37	22	1473.04												
43_6	42	26	1484.31												
43_7	49	28	1474.01												
43_8	55	6	1484.96												
43_9	61	14	1471.27												
43_10	67	4	1483.22												
43_11	73	26	1476.21												
43_12	85	16	1475.14												
43_13	91	9	1485.63												
43_14	97	24	1470.45												
43_15	103	8	1482.79												
43_16	109	26	1470.2												
43_17	121	27	1472.34												
43_18	127	5	1482.09												
43_19	133	24	1474.56												
43_20	139	24	1484.16												
43_21	145	17	1473.95												
43_22	151	16	1485.32												
43_23	157	29	1468.07												
43_24	162	24	1480.44												
43_25	169	20	1462.37												
43_26	174	13	1479.32												
43_27	181	19	1466.76												
43_28	186	22	1479.16												
43_29	193	18	1466												
43_30	198	20	1478.25												
43_31	205	23	1470.48												
43_32	217	15	1473.71												
43_33	223	1	1482.61												
43_34	229	23	1472.73												
43_35	235	9	1483.46												
43_36	241	22	1474.26												
43_37	247	23	1484.28												
46	-2	129	102	-7	18	0.46	0.24	1490.1							
1	0.5	2	0.5												
1															
46_1	13	18	1490.1												
46_2	18	26	1490.16												
46_3	25	17	1489.74												
46_4	30	25	1489.92												
46_5	42	26	1490.04												
46_6	49	28	1489.83												
46_7	55	6	1490.77												
56	-3	157	128	-40	17	0.26	-0.19	1493.15							
1	0.333333333	2	0.333333333	3	0.333333333										
1															
56_1	13	17	1493.15												
56_2	18	26	1499.59												
56_3	25	16	1489.98												
56_4	30	25	1498.73												
56_5	37	23	1490.96												
56_6	42	27	1496.96												
56_7	49	28	1489.83												
56_8	55	6	1498.82												
56_9	61	14	1488.61												
56_10	67	4	1497.76												
56_11	73	26	1492.94												
56_12	79	17	1499.04												
56_13	85	16	1493.06												
56_14	91	9	1497.09												
56_15	97	24	1488.86												
56_16	103	8	1496.72												
56_17	109	26	1489.28												
56_18	115	12	1496.63												
56_19	121	27	1490.65												
56_20	127	5	1496.51												
56_21	133	24	1490.78												
56_22	139	24	1498.24												
56_23	145	17	1492.04												
56_24	151	16	1498.35												
56_25	157	29	1486.97												
56_26	162	24	1495.63												
56_27	169	20	1485.16												
56_28	174	13	1494.11												
56_29	181	19	1483.85												
56_30	186	22	1493.68												
56_31	193	18	1484.68												
56_32	198	20	1493.63												
56_33	205	23	1486.55												
56_34	211	2	1495.78												
56_35	217	15	1489.37												
56_36	223	1	1496.41												
56_37	229	23	1489.92												
56_38	235	9	1497.24												
56_39	241	22	1491.05												
56_40	247	23	1497.25												
58	-4	154	122	-37	17	-0.21	-0.39	1491.54							
2	0.25	3	0.25	4	0.25	5	0.25								
1															
58_1	13	17	1491.54												
58_2	18	26	1499.04												
58_3	25	17	1488												
58_4	30	25	1497.97												
58_5	37	23	1489.44												
58_6	42	27	1497.63												
58_7	49	28	1488.92												
58_8	55	6	1498.21												
58_9	61	14	1487.61												
58_10	67	4	1497.36												
58_11	73	26	1490.84												
58_12	79	17	1497.88												
58_13	85	17	1492.88												
58_14	97	24	1489.47												
58_15	103	8	1496.87												
58_16	109	26	1488.67												
58_17	121	27	1490.11												
58_18	127	5	1496.14												
58_19	133	24	1489.99												
58_20	139	25	1497.54												
58_21	145	17	1489.58												
58_22	151	16	1497.7												
58_23	157	29	1486.32												
58_24	162	24	1495.01												
58_25	169	20	1484.54												
58_26	174	13	1493.61												
58_27	181	19	1483.41												
58_28	186	22	1493.17												
58_29	193	18	1485.03												
58_30	205	23	1486.75												
58_31	211	2	1495.56												
58_32	217	15	1489.34												
58_33	223	1	1496.5												
58_34	229	23	1490.23												
58_35	235	8	1496.49												
58_36	241	22	1490.43												
58_37	247	23	1496.96												
60	1	153	109	-37	18	0.28	-0.31	1499.16							
1															
60_1	13	18	1499.16												
60_2	18	26	1499.92												
60_3	25	17	1498.12												
60_4	30	25	1499.65												
60_5	37	22	1497.76												
60_6	42	27	1496.9												
60_7	49	28	1498.34												
60_8	55	6	1499.34												
60_9	61	14	1497.6												
60_10	73	26	1498.46												
60_11	79	17	1499.83												
60_12	85	17	1496.93												
60_13	91	9	1498.88												
60_14	97	24	1496.99												
60_15	103	8	1497.24												
60_16	109	26	1497.54												
60_17	115	12	1498.76												
60_18	121	27	1497.45												
60_19	127	5	1498.61												
60_20	133	24	1497.63												
60_21	139	24	1497.7												
60_22	145	17	1496.92												
60_23	151	16	1499.27												
60_24	157	29	1497.44												
60_25	162	24	1497.87												
60_26	169	20	1494.8												
60_27	174	13	1496.93												
60_28	181	19	1496.17												
60_29	186	22	1496.9												
60_30	193	18	1496.17												
60_31	198	20	1497.67												
60_32	205	23	1496.66												
60_33	211	2	1498.49												
60_34	217	15	1498.03												
60_35	223	1	1499.01												
60_36	235	9	1499.55												
60_37	241	22	1498.46												
65	2	151	145	-32	17	0.05	0.27	1495.84							
1															
65_1	13	17	1495.84												
65_2	18	25	1498.52												
65_3	25	17	1494.37												
65_4	30	25	1497.21												
65_5	30	26	1497.21												
65_6	37	23	1493.82												
65_7	49	28	1493.25												
65_8	55	6	1496.35												
65_9	61	13	1492.51												
65_10	67	4	1495.1												
65_11	73	26	1494.34												
65_12	79	17	1497.03												
65_13	97	24	1493.82												
65_14	115	13	1495.53												
65_15	121	27	1494.04												
65_16	139	24	1495.56												
65_17	145	17	1491.98												
65_18	151	16	1495.4												
65_19	157	29	1491.44												
65_20	162	24	1494.48												
65_21	169	20	1488.86												
65_22	174	13	1491.54												
65_23	186	22	1492												
65_24	193	18	1488.55												
65_25	198	20	1491.26												
65_26	205	23	1488.83												
65_27	211	2	1491.93												
65_28	217	15	1490.38												
65_29	223	1	1493.37												
65_30	229	24	1491.36												
65_31	235	9	1494.5												
65_32	241	22	1491.02												
67	-2	155	141	-40	17	0.4	-0.12	1502.08							
1	0.5	2	0.5												
1															
67_1	13	17	1502.08												
67_2	18	25	1504.89												
67_3	25	17	1499.83												
67_4	30	25	1503.36												
67_5	30	26	1503.36												
67_6	37	22	1499.43												
67_7	42	27	1500.16												
67_8	49	28	1499.83												
67_9	55	6	1502.6												
67_10	61	13	1498.64												
67_11	67	4	1502.69												
67_12	73	26	1500.32												
67_13	79	17	1502.76												
67_14	85	16	1501.11												
67_15	91	9	1502.94												
67_16	97	24	1499.77												
67_17	103	8	1502.48												
67_18	109	27	1499.25												
67_19	115	12	1501.84												
67_20	121	27	1499.1												
67_21	127	5	1501.31												
67_22	133	24	1498.88												
67_23	139	24	1501.81												
67_24	145	17	1499.06												
67_25	151	16	1502.14												
67_26	157	29	1497.49												
67_27	162	24	1500.88												
67_28	169	20	1495.7												
67_29	174	13	1499.27												
67_30	181	19	1494.9												
67_31	186	22	1498.51												
67_32	193	18	1494.72												
67_33	198	20	1497.99												
67_34	205	23	1495.05												
67_35	211	2	1498.4												
67_36	217	15	1496.9												
67_37	223	1	1500.13												
67_38	229	24	1497.91												
67_39	241	22	1499.22												
67_40	247	23	1502.27												
69	-2	156	134	-40	17	-0.19	0.46	1508							
1	0.5	2	0.5												
1															
69_1	13	17	1508												
69_2	18	26	1507.88												
69_3	25	16	1505.71												
69_4	30	25	1506.17												
69_5	30	26	1506.17												
69_6	37	22	1504.74												
69_7	42	27	1507.02												
69_8	49	28	1504.46												
69_9	55	6	1506.75												
69_10	61	13	1504.65												
69_11	67	4	1508.61												
69_12	73	26	1505.68												
69_13	79	17	1510.68												
69_14	85	16	1508.09												
69_15	91	9	1508.36												
69_16	103	8	1508.3												
69_17	109	26	1505.38												
69_18	115	12	1506.75												
69_19	121	27	1505.04												
69_20	127	5	1506.14												
69_21	133	24	1505.36												
69_22	139	24	1510.06												
69_23	145	17	1507.74												
69_24	151	16	1507.71												
69_25	157	29	1505.69												
69_26	162	24	1506.14												
69_27	169	20	1504.66												
69_28	174	13	1504.98												
69_29	181	19	1503.4												
69_30	186	22	1503.91												
69_31	193	18	1502.57												
69_32	198	20	1506.94												
69_33	205	23	1503.17												
69_34	211	2	1509.72												
69_35	217	15	1507.28												
69_36	223	1	1509.8												
69_37	229	23	1508												
69_38	235	9	1510.85												
69_39	241	22	1508.67												
69_40	247	23	1509.19												
70	2	157	135	-30	17	0.45	-0.46	1495.59							
1															
70_1	13	17	1495.59												
70_2	18	25	1498.67												
70_3	25	17	1492.58												
70_4	30	25	1500.29												
70_5	30	26	1500.29												
70_6	37	22	1490.17												
70_7	42	27	1499.65												
70_8	49	28	1492.51												
70_9	55	6	1500.1												
70_10	61	13	1491.05												
70_11	67	4	1498.37												
70_12	73	26	1494.86												
70_13	79	17	1500.23												
70_14	85	16	1495.04												
70_15	91	9	1500.29												
70_16	103	8	1498.73												
70_17	121	27	1492.45												
70_18	127	5	1497.91												
70_19	145	17	1492.08												
70_20	151	16	1499.43												
70_21	157	29	1488.68												
70_22	162	24	1496.95												
70_23	193	18	1486.51												
70_24	198	20	1494.8												
70_25	205	23	1488.28												
70_26	211	2	1496.6												
70_27	217	15	1491.23												
70_28	223	1	1497.76												
70_29	235	9	1498.46												
70_30	247	23	1499.04												
71	-3	154	131	-35	17	-0.46	-0.42	1490.35							
2	0.3333	3	0.3333	4	0.3333										
1															
71_1	13	17	1490.35												
71_2	21	16	1498.03												
71_3	30	25	1496.63												
71_4	30	26	1496.63												
71_5	37	23	1488.06												
71_6	42	27	1496.2												
71_7	49	28	1489.53												
71_8	55	6	1496.75												
71_9	61	13	1486.14												
71_10	67	4	1495.17												
71_11	73	26	1490.56												
71_12	79	17	1496.78												
71_13	85	16	1489.92												
71_14	91	9	1496.51												
71_15	97	24	1485.63												
71_16	103	8	1496.42												
71_17	109	26	1485.93												
71_18	115	12	1495.01												
71_19	121	27	1489.5												
71_20	127	5	1495.59												
71_21	133	24	1490.38												
71_22	139	24	1497.51												
71_23	145	17	1491.34												
71_24	151	16	1498.11												
71_25	157	29	1486.86												