#  Recharge  (RCH)  File				
#  Data  set  created  44472  using  MODFLOW  Pre-Processing.R				
#				
1  50				
1				
OPEN/CLOSE  .\recharge\recharge_SP1.txt  1  (FREE)  -1				
1				
OPEN/CLOSE  .\recharge\recharge_SP2.txt  1  (FREE)  -1				
1				
OPEN/CLOSE  .\recharge\recharge_SP3.txt  1  (FREE)  -1				
1				
OPEN/CLOSE  .\recharge\recharge_SP4.txt  1  (FREE)  -1				
1				
OPEN/CLOSE  .\recharge\recharge_SP5.txt  1  (FREE)  -1				
1				
OPEN/CLOSE  .\recharge\recharge_SP6.txt  1  (FREE)  -1				
1				
OPEN/CLOSE  .\recharge\recharge_SP7.txt  1  (FREE)  -1				
1				
OPEN/CLOSE  .\recharge\recharge_SP8.txt  1  (FREE)  -1				
1				
OPEN/CLOSE  .\recharge\recharge_SP9.txt  1  (FREE)  -1				
1				
OPEN/CLOSE  .\recharge\recharge_SP10.txt  1  (FREE)  -1				
1				
OPEN/CLOSE  .\recharge\recharge_SP11.txt  1  (FREE)  -1				
1				
OPEN/CLOSE  .\recharge\recharge_SP12.txt  1  (FREE)  -1				
1				
OPEN/CLOSE  .\recharge\recharge_SP13.txt  1  (FREE)  -1				
1				
OPEN/CLOSE  .\recharge\recharge_SP14.txt  1  (FREE)  -1				
1				
OPEN/CLOSE  .\recharge\recharge_SP15.txt  1  (FREE)  -1				
1				
OPEN/CLOSE  .\recharge\recharge_SP16.txt  1  (FREE)  -1				
1				
OPEN/CLOSE  .\recharge\recharge_SP17.txt  1  (FREE)  -1				
1				
OPEN/CLOSE  .\recharge\recharge_SP18.txt  1  (FREE)  -1				
1				
OPEN/CLOSE  .\recharge\recharge_SP19.txt  1  (FREE)  -1				
1				
OPEN/CLOSE  .\recharge\recharge_SP20.txt  1  (FREE)  -1				
1				
OPEN/CLOSE  .\recharge\recharge_SP21.txt  1  (FREE)  -1				
1				
OPEN/CLOSE  .\recharge\recharge_SP22.txt  1  (FREE)  -1				
1				
OPEN/CLOSE  .\recharge\recharge_SP23.txt  1  (FREE)  -1				
1				
OPEN/CLOSE  .\recharge\recharge_SP24.txt  1  (FREE)  -1				
1				
OPEN/CLOSE  .\recharge\recharge_SP25.txt  1  (FREE)  -1				
1				
OPEN/CLOSE  .\recharge\recharge_SP26.txt  1  (FREE)  -1				
1				
OPEN/CLOSE  .\recharge\recharge_SP27.txt  1  (FREE)  -1				
1				
OPEN/CLOSE  .\recharge\recharge_SP28.txt  1  (FREE)  -1				
1				
OPEN/CLOSE  .\recharge\recharge_SP29.txt  1  (FREE)  -1				
1				
OPEN/CLOSE  .\recharge\recharge_SP30.txt  1  (FREE)  -1				
1				
OPEN/CLOSE  .\recharge\recharge_SP31.txt  1  (FREE)  -1				
1				
OPEN/CLOSE  .\recharge\recharge_SP32.txt  1  (FREE)  -1				
1				
OPEN/CLOSE  .\recharge\recharge_SP33.txt  1  (FREE)  -1				
1				
OPEN/CLOSE  .\recharge\recharge_SP34.txt  1  (FREE)  -1				
1				
OPEN/CLOSE  .\recharge\recharge_SP35.txt  1  (FREE)  -1				
1				
OPEN/CLOSE  .\recharge\recharge_SP36.txt  1  (FREE)  -1				
1				
OPEN/CLOSE  .\recharge\recharge_SP37.txt  1  (FREE)  -1				
1				
OPEN/CLOSE  .\recharge\recharge_SP38.txt  1  (FREE)  -1				
1				
OPEN/CLOSE  .\recharge\recharge_SP39.txt  1  (FREE)  -1				
1				
OPEN/CLOSE  .\recharge\recharge_SP40.txt  1  (FREE)  -1				
1				
OPEN/CLOSE  .\recharge\recharge_SP41.txt  1  (FREE)  -1				
1				
OPEN/CLOSE  .\recharge\recharge_SP42.txt  1  (FREE)  -1				
1				
OPEN/CLOSE  .\recharge\recharge_SP43.txt  1  (FREE)  -1				
1				
OPEN/CLOSE  .\recharge\recharge_SP44.txt  1  (FREE)  -1				
1				
OPEN/CLOSE  .\recharge\recharge_SP45.txt  1  (FREE)  -1				
1				
OPEN/CLOSE  .\recharge\recharge_SP46.txt  1  (FREE)  -1				
1				
OPEN/CLOSE  .\recharge\recharge_SP47.txt  1  (FREE)  -1				
1				
OPEN/CLOSE  .\recharge\recharge_SP48.txt  1  (FREE)  -1				
1				
OPEN/CLOSE  .\recharge\recharge_SP49.txt  1  (FREE)  -1				
1				
OPEN/CLOSE  .\recharge\recharge_SP50.txt  1  (FREE)  -1				
1				
OPEN/CLOSE  .\recharge\recharge_SP51.txt  1  (FREE)  -1				
1				
OPEN/CLOSE  .\recharge\recharge_SP52.txt  1  (FREE)  -1				
1				
OPEN/CLOSE  .\recharge\recharge_SP53.txt  1  (FREE)  -1				
1				
OPEN/CLOSE  .\recharge\recharge_SP54.txt  1  (FREE)  -1				
1				
OPEN/CLOSE  .\recharge\recharge_SP55.txt  1  (FREE)  -1				
1				
OPEN/CLOSE  .\recharge\recharge_SP56.txt  1  (FREE)  -1				
1				
OPEN/CLOSE  .\recharge\recharge_SP57.txt  1  (FREE)  -1				
1				
OPEN/CLOSE  .\recharge\recharge_SP58.txt  1  (FREE)  -1				
1				
OPEN/CLOSE  .\recharge\recharge_SP59.txt  1  (FREE)  -1				
1				
OPEN/CLOSE  .\recharge\recharge_SP60.txt  1  (FREE)  -1				
1				
OPEN/CLOSE  .\recharge\recharge_SP61.txt  1  (FREE)  -1				
1				
OPEN/CLOSE  .\recharge\recharge_SP62.txt  1  (FREE)  -1				
1				
OPEN/CLOSE  .\recharge\recharge_SP63.txt  1  (FREE)  -1				
1				
OPEN/CLOSE  .\recharge\recharge_SP64.txt  1  (FREE)  -1				
1				
OPEN/CLOSE  .\recharge\recharge_SP65.txt  1  (FREE)  -1				
1				
OPEN/CLOSE  .\recharge\recharge_SP66.txt  1  (FREE)  -1				
1				
OPEN/CLOSE  .\recharge\recharge_SP67.txt  1  (FREE)  -1				
1				
OPEN/CLOSE  .\recharge\recharge_SP68.txt  1  (FREE)  -1				
1				
OPEN/CLOSE  .\recharge\recharge_SP69.txt  1  (FREE)  -1				
1				
OPEN/CLOSE  .\recharge\recharge_SP70.txt  1  (FREE)  -1				
1				
OPEN/CLOSE  .\recharge\recharge_SP71.txt  1  (FREE)  -1				
1				
OPEN/CLOSE  .\recharge\recharge_SP72.txt  1  (FREE)  -1				
1				
OPEN/CLOSE  .\recharge\recharge_SP73.txt  1  (FREE)  -1				
1				
OPEN/CLOSE  .\recharge\recharge_SP74.txt  1  (FREE)  -1				
1				
OPEN/CLOSE  .\recharge\recharge_SP75.txt  1  (FREE)  -1				
1				
OPEN/CLOSE  .\recharge\recharge_SP76.txt  1  (FREE)  -1				
1				
OPEN/CLOSE  .\recharge\recharge_SP77.txt  1  (FREE)  -1				
1				
OPEN/CLOSE  .\recharge\recharge_SP78.txt  1  (FREE)  -1				
1				
OPEN/CLOSE  .\recharge\recharge_SP79.txt  1  (FREE)  -1				
1				
OPEN/CLOSE  .\recharge\recharge_SP80.txt  1  (FREE)  -1				
1				
OPEN/CLOSE  .\recharge\recharge_SP81.txt  1  (FREE)  -1				
1				
OPEN/CLOSE  .\recharge\recharge_SP82.txt  1  (FREE)  -1				
1				
OPEN/CLOSE  .\recharge\recharge_SP83.txt  1  (FREE)  -1				
1				
OPEN/CLOSE  .\recharge\recharge_SP84.txt  1  (FREE)  -1				
1				
OPEN/CLOSE  .\recharge\recharge_SP85.txt  1  (FREE)  -1				
1				
OPEN/CLOSE  .\recharge\recharge_SP86.txt  1  (FREE)  -1				
1				
OPEN/CLOSE  .\recharge\recharge_SP87.txt  1  (FREE)  -1				
1				
OPEN/CLOSE  .\recharge\recharge_SP88.txt  1  (FREE)  -1				
1				
OPEN/CLOSE  .\recharge\recharge_SP89.txt  1  (FREE)  -1				
1				
OPEN/CLOSE  .\recharge\recharge_SP90.txt  1  (FREE)  -1				
1				
OPEN/CLOSE  .\recharge\recharge_SP91.txt  1  (FREE)  -1				
1				
OPEN/CLOSE  .\recharge\recharge_SP92.txt  1  (FREE)  -1				
1				
OPEN/CLOSE  .\recharge\recharge_SP93.txt  1  (FREE)  -1				
1				
OPEN/CLOSE  .\recharge\recharge_SP94.txt  1  (FREE)  -1				
1				
OPEN/CLOSE  .\recharge\recharge_SP95.txt  1  (FREE)  -1				
1				
OPEN/CLOSE  .\recharge\recharge_SP96.txt  1  (FREE)  -1				
1				
OPEN/CLOSE  .\recharge\recharge_SP97.txt  1  (FREE)  -1				
1				
OPEN/CLOSE  .\recharge\recharge_SP98.txt  1  (FREE)  -1				
1				
OPEN/CLOSE  .\recharge\recharge_SP99.txt  1  (FREE)  -1				
1				
OPEN/CLOSE  .\recharge\recharge_SP100.txt  1  (FREE)  -1				
1				
OPEN/CLOSE  .\recharge\recharge_SP101.txt  1  (FREE)  -1				
1				
OPEN/CLOSE  .\recharge\recharge_SP102.txt  1  (FREE)  -1				
1				
OPEN/CLOSE  .\recharge\recharge_SP103.txt  1  (FREE)  -1				
1				
OPEN/CLOSE  .\recharge\recharge_SP104.txt  1  (FREE)  -1				
1				
OPEN/CLOSE  .\recharge\recharge_SP105.txt  1  (FREE)  -1				
1				
OPEN/CLOSE  .\recharge\recharge_SP106.txt  1  (FREE)  -1				
1				
OPEN/CLOSE  .\recharge\recharge_SP107.txt  1  (FREE)  -1				
1				
OPEN/CLOSE  .\recharge\recharge_SP108.txt  1  (FREE)  -1				
1				
OPEN/CLOSE  .\recharge\recharge_SP109.txt  1  (FREE)  -1				
1				
OPEN/CLOSE  .\recharge\recharge_SP110.txt  1  (FREE)  -1				
1				
OPEN/CLOSE  .\recharge\recharge_SP111.txt  1  (FREE)  -1				
1				
OPEN/CLOSE  .\recharge\recharge_SP112.txt  1  (FREE)  -1				
1				
OPEN/CLOSE  .\recharge\recharge_SP113.txt  1  (FREE)  -1				
1				
OPEN/CLOSE  .\recharge\recharge_SP114.txt  1  (FREE)  -1				
1				
OPEN/CLOSE  .\recharge\recharge_SP115.txt  1  (FREE)  -1				
1				
OPEN/CLOSE  .\recharge\recharge_SP116.txt  1  (FREE)  -1				
1				
OPEN/CLOSE  .\recharge\recharge_SP117.txt  1  (FREE)  -1				
1				
OPEN/CLOSE  .\recharge\recharge_SP118.txt  1  (FREE)  -1				
1				
OPEN/CLOSE  .\recharge\recharge_SP119.txt  1  (FREE)  -1				
1				
OPEN/CLOSE  .\recharge\recharge_SP120.txt  1  (FREE)  -1				
1				
OPEN/CLOSE  .\recharge\recharge_SP121.txt  1  (FREE)  -1				
1				
OPEN/CLOSE  .\recharge\recharge_SP122.txt  1  (FREE)  -1				
1				
OPEN/CLOSE  .\recharge\recharge_SP123.txt  1  (FREE)  -1				
1				
OPEN/CLOSE  .\recharge\recharge_SP124.txt  1  (FREE)  -1				
1				
OPEN/CLOSE  .\recharge\recharge_SP125.txt  1  (FREE)  -1				
1				
OPEN/CLOSE  .\recharge\recharge_SP126.txt  1  (FREE)  -1				
1				
OPEN/CLOSE  .\recharge\recharge_SP127.txt  1  (FREE)  -1				
1				
OPEN/CLOSE  .\recharge\recharge_SP128.txt  1  (FREE)  -1				
1				
OPEN/CLOSE  .\recharge\recharge_SP129.txt  1  (FREE)  -1				
1				
OPEN/CLOSE  .\recharge\recharge_SP130.txt  1  (FREE)  -1				
1				
OPEN/CLOSE  .\recharge\recharge_SP131.txt  1  (FREE)  -1				
1				
OPEN/CLOSE  .\recharge\recharge_SP132.txt  1  (FREE)  -1				
1				
OPEN/CLOSE  .\recharge\recharge_SP133.txt  1  (FREE)  -1				
1				
OPEN/CLOSE  .\recharge\recharge_SP134.txt  1  (FREE)  -1				
1				
OPEN/CLOSE  .\recharge\recharge_SP135.txt  1  (FREE)  -1				
1				
OPEN/CLOSE  .\recharge\recharge_SP136.txt  1  (FREE)  -1				
1				
OPEN/CLOSE  .\recharge\recharge_SP137.txt  1  (FREE)  -1				
1				
OPEN/CLOSE  .\recharge\recharge_SP138.txt  1  (FREE)  -1				
1				
OPEN/CLOSE  .\recharge\recharge_SP139.txt  1  (FREE)  -1				
1				
OPEN/CLOSE  .\recharge\recharge_SP140.txt  1  (FREE)  -1				
1				
OPEN/CLOSE  .\recharge\recharge_SP141.txt  1  (FREE)  -1				
1				
OPEN/CLOSE  .\recharge\recharge_SP142.txt  1  (FREE)  -1				
1				
OPEN/CLOSE  .\recharge\recharge_SP143.txt  1  (FREE)  -1				
1				
OPEN/CLOSE  .\recharge\recharge_SP144.txt  1  (FREE)  -1				
1				
OPEN/CLOSE  .\recharge\recharge_SP145.txt  1  (FREE)  -1				
1				
OPEN/CLOSE  .\recharge\recharge_SP146.txt  1  (FREE)  -1				
1				
OPEN/CLOSE  .\recharge\recharge_SP147.txt  1  (FREE)  -1				
1				
OPEN/CLOSE  .\recharge\recharge_SP148.txt  1  (FREE)  -1				
1				
OPEN/CLOSE  .\recharge\recharge_SP149.txt  1  (FREE)  -1				
1				
OPEN/CLOSE  .\recharge\recharge_SP150.txt  1  (FREE)  -1				
1				
OPEN/CLOSE  .\recharge\recharge_SP151.txt  1  (FREE)  -1				
1				
OPEN/CLOSE  .\recharge\recharge_SP152.txt  1  (FREE)  -1				
1				
OPEN/CLOSE  .\recharge\recharge_SP153.txt  1  (FREE)  -1				
1				
OPEN/CLOSE  .\recharge\recharge_SP154.txt  1  (FREE)  -1				
1				
OPEN/CLOSE  .\recharge\recharge_SP155.txt  1  (FREE)  -1				
1				
OPEN/CLOSE  .\recharge\recharge_SP156.txt  1  (FREE)  -1				
1				
OPEN/CLOSE  .\recharge\recharge_SP157.txt  1  (FREE)  -1				
1				
OPEN/CLOSE  .\recharge\recharge_SP158.txt  1  (FREE)  -1				
1				
OPEN/CLOSE  .\recharge\recharge_SP159.txt  1  (FREE)  -1				
1				
OPEN/CLOSE  .\recharge\recharge_SP160.txt  1  (FREE)  -1				
1				
OPEN/CLOSE  .\recharge\recharge_SP161.txt  1  (FREE)  -1				
1				
OPEN/CLOSE  .\recharge\recharge_SP162.txt  1  (FREE)  -1				
1				
OPEN/CLOSE  .\recharge\recharge_SP163.txt  1  (FREE)  -1				
1				
OPEN/CLOSE  .\recharge\recharge_SP164.txt  1  (FREE)  -1				
1				
OPEN/CLOSE  .\recharge\recharge_SP165.txt  1  (FREE)  -1				
1				
OPEN/CLOSE  .\recharge\recharge_SP166.txt  1  (FREE)  -1				
1				
OPEN/CLOSE  .\recharge\recharge_SP167.txt  1  (FREE)  -1				
1				
OPEN/CLOSE  .\recharge\recharge_SP168.txt  1  (FREE)  -1				
1				
OPEN/CLOSE  .\recharge\recharge_SP169.txt  1  (FREE)  -1				
1				
OPEN/CLOSE  .\recharge\recharge_SP170.txt  1  (FREE)  -1				
1				
OPEN/CLOSE  .\recharge\recharge_SP171.txt  1  (FREE)  -1				
1				
OPEN/CLOSE  .\recharge\recharge_SP172.txt  1  (FREE)  -1				
1				
OPEN/CLOSE  .\recharge\recharge_SP173.txt  1  (FREE)  -1				
1				
OPEN/CLOSE  .\recharge\recharge_SP174.txt  1  (FREE)  -1				
1				
OPEN/CLOSE  .\recharge\recharge_SP175.txt  1  (FREE)  -1				
1				
OPEN/CLOSE  .\recharge\recharge_SP176.txt  1  (FREE)  -1				
1				
OPEN/CLOSE  .\recharge\recharge_SP177.txt  1  (FREE)  -1				
1				
OPEN/CLOSE  .\recharge\recharge_SP178.txt  1  (FREE)  -1				
1				
OPEN/CLOSE  .\recharge\recharge_SP179.txt  1  (FREE)  -1				
1				
OPEN/CLOSE  .\recharge\recharge_SP180.txt  1  (FREE)  -1				
1				
OPEN/CLOSE  .\recharge\recharge_SP181.txt  1  (FREE)  -1				
1				
OPEN/CLOSE  .\recharge\recharge_SP182.txt  1  (FREE)  -1				
1				
OPEN/CLOSE  .\recharge\recharge_SP183.txt  1  (FREE)  -1				
1				
OPEN/CLOSE  .\recharge\recharge_SP184.txt  1  (FREE)  -1				
1				
OPEN/CLOSE  .\recharge\recharge_SP185.txt  1  (FREE)  -1				
1				
OPEN/CLOSE  .\recharge\recharge_SP186.txt  1  (FREE)  -1				
1				
OPEN/CLOSE  .\recharge\recharge_SP187.txt  1  (FREE)  -1				
1				
OPEN/CLOSE  .\recharge\recharge_SP188.txt  1  (FREE)  -1				
1				
OPEN/CLOSE  .\recharge\recharge_SP189.txt  1  (FREE)  -1				
1				
OPEN/CLOSE  .\recharge\recharge_SP190.txt  1  (FREE)  -1				
1				
OPEN/CLOSE  .\recharge\recharge_SP191.txt  1  (FREE)  -1				
1				
OPEN/CLOSE  .\recharge\recharge_SP192.txt  1  (FREE)  -1				
1				
OPEN/CLOSE  .\recharge\recharge_SP193.txt  1  (FREE)  -1				
1				
OPEN/CLOSE  .\recharge\recharge_SP194.txt  1  (FREE)  -1				
1				
OPEN/CLOSE  .\recharge\recharge_SP195.txt  1  (FREE)  -1				
1				
OPEN/CLOSE  .\recharge\recharge_SP196.txt  1  (FREE)  -1				
1				
OPEN/CLOSE  .\recharge\recharge_SP197.txt  1  (FREE)  -1				
1				
OPEN/CLOSE  .\recharge\recharge_SP198.txt  1  (FREE)  -1				
1				
OPEN/CLOSE  .\recharge\recharge_SP199.txt  1  (FREE)  -1				
1				
OPEN/CLOSE  .\recharge\recharge_SP200.txt  1  (FREE)  -1				
1				
OPEN/CLOSE  .\recharge\recharge_SP201.txt  1  (FREE)  -1				
1				
OPEN/CLOSE  .\recharge\recharge_SP202.txt  1  (FREE)  -1				
1				
OPEN/CLOSE  .\recharge\recharge_SP203.txt  1  (FREE)  -1				
1				
OPEN/CLOSE  .\recharge\recharge_SP204.txt  1  (FREE)  -1				
1				
OPEN/CLOSE  .\recharge\recharge_SP205.txt  1  (FREE)  -1				
1				
OPEN/CLOSE  .\recharge\recharge_SP206.txt  1  (FREE)  -1				
1				
OPEN/CLOSE  .\recharge\recharge_SP207.txt  1  (FREE)  -1				
1				
OPEN/CLOSE  .\recharge\recharge_SP208.txt  1  (FREE)  -1				
1				
OPEN/CLOSE  .\recharge\recharge_SP209.txt  1  (FREE)  -1				
1				
OPEN/CLOSE  .\recharge\recharge_SP210.txt  1  (FREE)  -1				
1				
OPEN/CLOSE  .\recharge\recharge_SP211.txt  1  (FREE)  -1				
1				
OPEN/CLOSE  .\recharge\recharge_SP212.txt  1  (FREE)  -1				
1				
OPEN/CLOSE  .\recharge\recharge_SP213.txt  1  (FREE)  -1				
1				
OPEN/CLOSE  .\recharge\recharge_SP214.txt  1  (FREE)  -1				
1				
OPEN/CLOSE  .\recharge\recharge_SP215.txt  1  (FREE)  -1				
1				
OPEN/CLOSE  .\recharge\recharge_SP216.txt  1  (FREE)  -1				
1				
OPEN/CLOSE  .\recharge\recharge_SP217.txt  1  (FREE)  -1				
1				
OPEN/CLOSE  .\recharge\recharge_SP218.txt  1  (FREE)  -1				
1				
OPEN/CLOSE  .\recharge\recharge_SP219.txt  1  (FREE)  -1				
1				
OPEN/CLOSE  .\recharge\recharge_SP220.txt  1  (FREE)  -1				
1				
OPEN/CLOSE  .\recharge\recharge_SP221.txt  1  (FREE)  -1				
1				
OPEN/CLOSE  .\recharge\recharge_SP222.txt  1  (FREE)  -1				
1				
OPEN/CLOSE  .\recharge\recharge_SP223.txt  1  (FREE)  -1				
1				
OPEN/CLOSE  .\recharge\recharge_SP224.txt  1  (FREE)  -1				
1				
OPEN/CLOSE  .\recharge\recharge_SP225.txt  1  (FREE)  -1				
1				
OPEN/CLOSE  .\recharge\recharge_SP226.txt  1  (FREE)  -1				
1				
OPEN/CLOSE  .\recharge\recharge_SP227.txt  1  (FREE)  -1				
1				
OPEN/CLOSE  .\recharge\recharge_SP228.txt  1  (FREE)  -1				
1				
OPEN/CLOSE  .\recharge\recharge_SP229.txt  1  (FREE)  -1				
1				
OPEN/CLOSE  .\recharge\recharge_SP230.txt  1  (FREE)  -1				
1				
OPEN/CLOSE  .\recharge\recharge_SP231.txt  1  (FREE)  -1				
1				
OPEN/CLOSE  .\recharge\recharge_SP232.txt  1  (FREE)  -1				
1				
OPEN/CLOSE  .\recharge\recharge_SP233.txt  1  (FREE)  -1				
1				
OPEN/CLOSE  .\recharge\recharge_SP234.txt  1  (FREE)  -1				
1				
OPEN/CLOSE  .\recharge\recharge_SP235.txt  1  (FREE)  -1				
1				
OPEN/CLOSE  .\recharge\recharge_SP236.txt  1  (FREE)  -1				
1				
OPEN/CLOSE  .\recharge\recharge_SP237.txt  1  (FREE)  -1				
1				
OPEN/CLOSE  .\recharge\recharge_SP238.txt  1  (FREE)  -1				
1				
OPEN/CLOSE  .\recharge\recharge_SP239.txt  1  (FREE)  -1				
1				
OPEN/CLOSE  .\recharge\recharge_SP240.txt  1  (FREE)  -1				
1				
OPEN/CLOSE  .\recharge\recharge_SP241.txt  1  (FREE)  -1				
1				
OPEN/CLOSE  .\recharge\recharge_SP242.txt  1  (FREE)  -1				
1				
OPEN/CLOSE  .\recharge\recharge_SP243.txt  1  (FREE)  -1				
1				
OPEN/CLOSE  .\recharge\recharge_SP244.txt  1  (FREE)  -1				
1				
OPEN/CLOSE  .\recharge\recharge_SP245.txt  1  (FREE)  -1				
1				
OPEN/CLOSE  .\recharge\recharge_SP246.txt  1  (FREE)  -1				
1				
OPEN/CLOSE  .\recharge\recharge_SP247.txt  1  (FREE)  -1				
1				
OPEN/CLOSE  .\recharge\recharge_SP248.txt  1  (FREE)  -1				
1				
OPEN/CLOSE  .\recharge\recharge_SP249.txt  1  (FREE)  -1				
1				
OPEN/CLOSE  .\recharge\recharge_SP250.txt  1  (FREE)  -1				
1				
OPEN/CLOSE  .\recharge\recharge_SP251.txt  1  (FREE)  -1				
1				
OPEN/CLOSE  .\recharge\recharge_SP252.txt  1  (FREE)  -1				
1				
OPEN/CLOSE  .\recharge\recharge_SP253.txt  1  (FREE)  -1				
1				
OPEN/CLOSE  .\recharge\recharge_SP254.txt  1  (FREE)  -1				
1				
OPEN/CLOSE  .\recharge\recharge_SP255.txt  1  (FREE)  -1				
1				
OPEN/CLOSE  .\recharge\recharge_SP256.txt  1  (FREE)  -1				
1				
OPEN/CLOSE  .\recharge\recharge_SP257.txt  1  (FREE)  -1				
1				
OPEN/CLOSE  .\recharge\recharge_SP258.txt  1  (FREE)  -1				
1				
OPEN/CLOSE  .\recharge\recharge_SP259.txt  1  (FREE)  -1				
1				
OPEN/CLOSE  .\recharge\recharge_SP260.txt  1  (FREE)  -1				
1				
OPEN/CLOSE  .\recharge\recharge_SP261.txt  1  (FREE)  -1				
1				
OPEN/CLOSE  .\recharge\recharge_SP262.txt  1  (FREE)  -1				
1				
OPEN/CLOSE  .\recharge\recharge_SP263.txt  1  (FREE)  -1				
1				
OPEN/CLOSE  .\recharge\recharge_SP264.txt  1  (FREE)  -1				
1				
OPEN/CLOSE  .\recharge\recharge_SP265.txt  1  (FREE)  -1				
1				
OPEN/CLOSE  .\recharge\recharge_SP266.txt  1  (FREE)  -1				
1				
OPEN/CLOSE  .\recharge\recharge_SP267.txt  1  (FREE)  -1				
1				
OPEN/CLOSE  .\recharge\recharge_SP268.txt  1  (FREE)  -1				
1				
OPEN/CLOSE  .\recharge\recharge_SP269.txt  1  (FREE)  -1				
1				
OPEN/CLOSE  .\recharge\recharge_SP270.txt  1  (FREE)  -1				
1				
OPEN/CLOSE  .\recharge\recharge_SP271.txt  1  (FREE)  -1				
1				
OPEN/CLOSE  .\recharge\recharge_SP272.txt  1  (FREE)  -1				
1				
OPEN/CLOSE  .\recharge\recharge_SP273.txt  1  (FREE)  -1				
1				
OPEN/CLOSE  .\recharge\recharge_SP274.txt  1  (FREE)  -1				
1				
OPEN/CLOSE  .\recharge\recharge_SP275.txt  1  (FREE)  -1				
1				
OPEN/CLOSE  .\recharge\recharge_SP276.txt  1  (FREE)  -1				
1				
OPEN/CLOSE  .\recharge\recharge_SP277.txt  1  (FREE)  -1				
1				
OPEN/CLOSE  .\recharge\recharge_SP278.txt  1  (FREE)  -1				
1				
OPEN/CLOSE  .\recharge\recharge_SP279.txt  1  (FREE)  -1				
1				
OPEN/CLOSE  .\recharge\recharge_SP280.txt  1  (FREE)  -1				
1				
OPEN/CLOSE  .\recharge\recharge_SP281.txt  1  (FREE)  -1				
1				
OPEN/CLOSE  .\recharge\recharge_SP282.txt  1  (FREE)  -1				
1				
OPEN/CLOSE  .\recharge\recharge_SP283.txt  1  (FREE)  -1				
1				
OPEN/CLOSE  .\recharge\recharge_SP284.txt  1  (FREE)  -1				
1				
OPEN/CLOSE  .\recharge\recharge_SP285.txt  1  (FREE)  -1				
1				
OPEN/CLOSE  .\recharge\recharge_SP286.txt  1  (FREE)  -1				
1				
OPEN/CLOSE  .\recharge\recharge_SP287.txt  1  (FREE)  -1				
1				
OPEN/CLOSE  .\recharge\recharge_SP288.txt  1  (FREE)  -1				
1				
OPEN/CLOSE  .\recharge\recharge_SP289.txt  1  (FREE)  -1				
1				
OPEN/CLOSE  .\recharge\recharge_SP290.txt  1  (FREE)  -1				
1				
OPEN/CLOSE  .\recharge\recharge_SP291.txt  1  (FREE)  -1				
1				
OPEN/CLOSE  .\recharge\recharge_SP292.txt  1  (FREE)  -1				
1				
OPEN/CLOSE  .\recharge\recharge_SP293.txt  1  (FREE)  -1				
1				
OPEN/CLOSE  .\recharge\recharge_SP294.txt  1  (FREE)  -1				
1				
OPEN/CLOSE  .\recharge\recharge_SP295.txt  1  (FREE)  -1				
1				
OPEN/CLOSE  .\recharge\recharge_SP296.txt  1  (FREE)  -1				
1				
OPEN/CLOSE  .\recharge\recharge_SP297.txt  1  (FREE)  -1				
1				
OPEN/CLOSE  .\recharge\recharge_SP298.txt  1  (FREE)  -1				
1				
OPEN/CLOSE  .\recharge\recharge_SP299.txt  1  (FREE)  -1				
1				
OPEN/CLOSE  .\recharge\recharge_SP300.txt  1  (FREE)  -1				
1				
OPEN/CLOSE  .\recharge\recharge_SP301.txt  1  (FREE)  -1				
1				
OPEN/CLOSE  .\recharge\recharge_SP302.txt  1  (FREE)  -1				
1				
OPEN/CLOSE  .\recharge\recharge_SP303.txt  1  (FREE)  -1				
1				
OPEN/CLOSE  .\recharge\recharge_SP304.txt  1  (FREE)  -1				
1				
OPEN/CLOSE  .\recharge\recharge_SP305.txt  1  (FREE)  -1				
1				
OPEN/CLOSE  .\recharge\recharge_SP306.txt  1  (FREE)  -1				
1				
OPEN/CLOSE  .\recharge\recharge_SP307.txt  1  (FREE)  -1				
1				
OPEN/CLOSE  .\recharge\recharge_SP308.txt  1  (FREE)  -1				
1				
OPEN/CLOSE  .\recharge\recharge_SP309.txt  1  (FREE)  -1				
1				
OPEN/CLOSE  .\recharge\recharge_SP310.txt  1  (FREE)  -1				
1				
OPEN/CLOSE  .\recharge\recharge_SP311.txt  1  (FREE)  -1				
1				
OPEN/CLOSE  .\recharge\recharge_SP312.txt  1  (FREE)  -1				
1				
OPEN/CLOSE  .\recharge\recharge_SP313.txt  1  (FREE)  -1				
1				
OPEN/CLOSE  .\recharge\recharge_SP314.txt  1  (FREE)  -1				
1				
OPEN/CLOSE  .\recharge\recharge_SP315.txt  1  (FREE)  -1				
1				
OPEN/CLOSE  .\recharge\recharge_SP316.txt  1  (FREE)  -1				
1				
OPEN/CLOSE  .\recharge\recharge_SP317.txt  1  (FREE)  -1				
1				
OPEN/CLOSE  .\recharge\recharge_SP318.txt  1  (FREE)  -1				
1				
OPEN/CLOSE  .\recharge\recharge_SP319.txt  1  (FREE)  -1				
1				
OPEN/CLOSE  .\recharge\recharge_SP320.txt  1  (FREE)  -1				
1				
OPEN/CLOSE  .\recharge\recharge_SP321.txt  1  (FREE)  -1				
1				
OPEN/CLOSE  .\recharge\recharge_SP322.txt  1  (FREE)  -1				
1				
OPEN/CLOSE  .\recharge\recharge_SP323.txt  1  (FREE)  -1				
1				
OPEN/CLOSE  .\recharge\recharge_SP324.txt  1  (FREE)  -1				
1				
OPEN/CLOSE  .\recharge\recharge_SP325.txt  1  (FREE)  -1				
1				
OPEN/CLOSE  .\recharge\recharge_SP326.txt  1  (FREE)  -1				
1				
OPEN/CLOSE  .\recharge\recharge_SP327.txt  1  (FREE)  -1				
1				
OPEN/CLOSE  .\recharge\recharge_SP328.txt  1  (FREE)  -1				
1				
OPEN/CLOSE  .\recharge\recharge_SP329.txt  1  (FREE)  -1				
1				
OPEN/CLOSE  .\recharge\recharge_SP330.txt  1  (FREE)  -1				
1				
OPEN/CLOSE  .\recharge\recharge_SP331.txt  1  (FREE)  -1				
1				
OPEN/CLOSE  .\recharge\recharge_SP332.txt  1  (FREE)  -1				
1				
OPEN/CLOSE  .\recharge\recharge_SP333.txt  1  (FREE)  -1				
1				
OPEN/CLOSE  .\recharge\recharge_SP334.txt  1  (FREE)  -1				
1				
OPEN/CLOSE  .\recharge\recharge_SP335.txt  1  (FREE)  -1				
1				
OPEN/CLOSE  .\recharge\recharge_SP336.txt  1  (FREE)  -1				
1				
OPEN/CLOSE  .\recharge\recharge_SP337.txt  1  (FREE)  -1				
1				
OPEN/CLOSE  .\recharge\recharge_SP338.txt  1  (FREE)  -1				
1				
OPEN/CLOSE  .\recharge\recharge_SP339.txt  1  (FREE)  -1				
1				
OPEN/CLOSE  .\recharge\recharge_SP340.txt  1  (FREE)  -1				
1				
OPEN/CLOSE  .\recharge\recharge_SP341.txt  1  (FREE)  -1				
1				
OPEN/CLOSE  .\recharge\recharge_SP342.txt  1  (FREE)  -1				
1				
OPEN/CLOSE  .\recharge\recharge_SP343.txt  1  (FREE)  -1				
1				
OPEN/CLOSE  .\recharge\recharge_SP344.txt  1  (FREE)  -1				
1				
OPEN/CLOSE  .\recharge\recharge_SP345.txt  1  (FREE)  -1				
1				
OPEN/CLOSE  .\recharge\recharge_SP346.txt  1  (FREE)  -1				
1				
OPEN/CLOSE  .\recharge\recharge_SP347.txt  1  (FREE)  -1				
1				
OPEN/CLOSE  .\recharge\recharge_SP348.txt  1  (FREE)  -1				
1				
OPEN/CLOSE  .\recharge\recharge_SP349.txt  1  (FREE)  -1				
1				
OPEN/CLOSE  .\recharge\recharge_SP350.txt  1  (FREE)  -1				
1				
OPEN/CLOSE  .\recharge\recharge_SP351.txt  1  (FREE)  -1				
1				
OPEN/CLOSE  .\recharge\recharge_SP352.txt  1  (FREE)  -1				
1				
OPEN/CLOSE  .\recharge\recharge_SP353.txt  1  (FREE)  -1				
1				
OPEN/CLOSE  .\recharge\recharge_SP354.txt  1  (FREE)  -1				
1				
OPEN/CLOSE  .\recharge\recharge_SP355.txt  1  (FREE)  -1				
1				
OPEN/CLOSE  .\recharge\recharge_SP356.txt  1  (FREE)  -1				
1				
OPEN/CLOSE  .\recharge\recharge_SP357.txt  1  (FREE)  -1				
1				
OPEN/CLOSE  .\recharge\recharge_SP358.txt  1  (FREE)  -1				
1				
OPEN/CLOSE  .\recharge\recharge_SP359.txt  1  (FREE)  -1				
1				
OPEN/CLOSE  .\recharge\recharge_SP360.txt  1  (FREE)  -1				
1				
OPEN/CLOSE  .\recharge\recharge_SP361.txt  1  (FREE)  -1				
1				
OPEN/CLOSE  .\recharge\recharge_SP362.txt  1  (FREE)  -1				
1				
OPEN/CLOSE  .\recharge\recharge_SP363.txt  1  (FREE)  -1				
1				
OPEN/CLOSE  .\recharge\recharge_SP364.txt  1  (FREE)  -1				
1				
OPEN/CLOSE  .\recharge\recharge_SP365.txt  1  (FREE)  -1				
1				
OPEN/CLOSE  .\recharge\recharge_SP366.txt  1  (FREE)  -1				
1				
OPEN/CLOSE  .\recharge\recharge_SP367.txt  1  (FREE)  -1				
1				
OPEN/CLOSE  .\recharge\recharge_SP368.txt  1  (FREE)  -1				
1				
OPEN/CLOSE  .\recharge\recharge_SP369.txt  1  (FREE)  -1				
1				
OPEN/CLOSE  .\recharge\recharge_SP370.txt  1  (FREE)  -1				
1				
OPEN/CLOSE  .\recharge\recharge_SP371.txt  1  (FREE)  -1				
1				
OPEN/CLOSE  .\recharge\recharge_SP372.txt  1  (FREE)  -1				
1				
OPEN/CLOSE  .\recharge\recharge_SP373.txt  1  (FREE)  -1				
1				
OPEN/CLOSE  .\recharge\recharge_SP374.txt  1  (FREE)  -1				
1				
OPEN/CLOSE  .\recharge\recharge_SP375.txt  1  (FREE)  -1				
1				
OPEN/CLOSE  .\recharge\recharge_SP376.txt  1  (FREE)  -1				
1				
OPEN/CLOSE  .\recharge\recharge_SP377.txt  1  (FREE)  -1				
1				
OPEN/CLOSE  .\recharge\recharge_SP378.txt  1  (FREE)  -1				
1				
OPEN/CLOSE  .\recharge\recharge_SP379.txt  1  (FREE)  -1				
1				
OPEN/CLOSE  .\recharge\recharge_SP380.txt  1  (FREE)  -1				
1				
OPEN/CLOSE  .\recharge\recharge_SP381.txt  1  (FREE)  -1				
1				
OPEN/CLOSE  .\recharge\recharge_SP382.txt  1  (FREE)  -1				
1				
OPEN/CLOSE  .\recharge\recharge_SP383.txt  1  (FREE)  -1				
1				
OPEN/CLOSE  .\recharge\recharge_SP384.txt  1  (FREE)  -1				
1				
OPEN/CLOSE  .\recharge\recharge_SP385.txt  1  (FREE)  -1				
1				
OPEN/CLOSE  .\recharge\recharge_SP386.txt  1  (FREE)  -1				
1				
OPEN/CLOSE  .\recharge\recharge_SP387.txt  1  (FREE)  -1				
1				
OPEN/CLOSE  .\recharge\recharge_SP388.txt  1  (FREE)  -1				
1				
OPEN/CLOSE  .\recharge\recharge_SP389.txt  1  (FREE)  -1				
1				
OPEN/CLOSE  .\recharge\recharge_SP390.txt  1  (FREE)  -1				
1				
OPEN/CLOSE  .\recharge\recharge_SP391.txt  1  (FREE)  -1				
1				
OPEN/CLOSE  .\recharge\recharge_SP392.txt  1  (FREE)  -1				
1				
OPEN/CLOSE  .\recharge\recharge_SP393.txt  1  (FREE)  -1				
1				
OPEN/CLOSE  .\recharge\recharge_SP394.txt  1  (FREE)  -1				
1				
OPEN/CLOSE  .\recharge\recharge_SP395.txt  1  (FREE)  -1				
1				
OPEN/CLOSE  .\recharge\recharge_SP396.txt  1  (FREE)  -1				
1				
OPEN/CLOSE  .\recharge\recharge_SP397.txt  1  (FREE)  -1				
1				
OPEN/CLOSE  .\recharge\recharge_SP398.txt  1  (FREE)  -1				
1				
OPEN/CLOSE  .\recharge\recharge_SP399.txt  1  (FREE)  -1				
1				
OPEN/CLOSE  .\recharge\recharge_SP400.txt  1  (FREE)  -1				
1				
OPEN/CLOSE  .\recharge\recharge_SP401.txt  1  (FREE)  -1				
1				
OPEN/CLOSE  .\recharge\recharge_SP402.txt  1  (FREE)  -1				
1				
OPEN/CLOSE  .\recharge\recharge_SP403.txt  1  (FREE)  -1				
1				
OPEN/CLOSE  .\recharge\recharge_SP404.txt  1  (FREE)  -1				
1				
OPEN/CLOSE  .\recharge\recharge_SP405.txt  1  (FREE)  -1				
1				
OPEN/CLOSE  .\recharge\recharge_SP406.txt  1  (FREE)  -1				
1				
OPEN/CLOSE  .\recharge\recharge_SP407.txt  1  (FREE)  -1				
1				
OPEN/CLOSE  .\recharge\recharge_SP408.txt  1  (FREE)  -1				
1				
OPEN/CLOSE  .\recharge\recharge_SP409.txt  1  (FREE)  -1				
1				
OPEN/CLOSE  .\recharge\recharge_SP410.txt  1  (FREE)  -1				
1				
OPEN/CLOSE  .\recharge\recharge_SP411.txt  1  (FREE)  -1				
1				
OPEN/CLOSE  .\recharge\recharge_SP412.txt  1  (FREE)  -1				
1				
OPEN/CLOSE  .\recharge\recharge_SP413.txt  1  (FREE)  -1				
1				
OPEN/CLOSE  .\recharge\recharge_SP414.txt  1  (FREE)  -1				
1				
OPEN/CLOSE  .\recharge\recharge_SP415.txt  1  (FREE)  -1				
1				
OPEN/CLOSE  .\recharge\recharge_SP416.txt  1  (FREE)  -1				
1				
OPEN/CLOSE  .\recharge\recharge_SP417.txt  1  (FREE)  -1				
1				
OPEN/CLOSE  .\recharge\recharge_SP418.txt  1  (FREE)  -1				
1				
OPEN/CLOSE  .\recharge\recharge_SP419.txt  1  (FREE)  -1				
1				
OPEN/CLOSE  .\recharge\recharge_SP420.txt  1  (FREE)  -1				
1				
OPEN/CLOSE  .\recharge\recharge_SP421.txt  1  (FREE)  -1				
1				
OPEN/CLOSE  .\recharge\recharge_SP422.txt  1  (FREE)  -1				
1				
OPEN/CLOSE  .\recharge\recharge_SP423.txt  1  (FREE)  -1				
1				
OPEN/CLOSE  .\recharge\recharge_SP424.txt  1  (FREE)  -1				
1				
OPEN/CLOSE  .\recharge\recharge_SP425.txt  1  (FREE)  -1				
1				
OPEN/CLOSE  .\recharge\recharge_SP426.txt  1  (FREE)  -1				
1				
OPEN/CLOSE  .\recharge\recharge_SP427.txt  1  (FREE)  -1				
1				
OPEN/CLOSE  .\recharge\recharge_SP428.txt  1  (FREE)  -1				
1				
OPEN/CLOSE  .\recharge\recharge_SP429.txt  1  (FREE)  -1				
1				
OPEN/CLOSE  .\recharge\recharge_SP430.txt  1  (FREE)  -1				
1				
OPEN/CLOSE  .\recharge\recharge_SP431.txt  1  (FREE)  -1				
1				
OPEN/CLOSE  .\recharge\recharge_SP432.txt  1  (FREE)  -1				
1				
OPEN/CLOSE  .\recharge\recharge_SP433.txt  1  (FREE)  -1				
1				
OPEN/CLOSE  .\recharge\recharge_SP434.txt  1  (FREE)  -1				
1				
OPEN/CLOSE  .\recharge\recharge_SP435.txt  1  (FREE)  -1				
1				
OPEN/CLOSE  .\recharge\recharge_SP436.txt  1  (FREE)  -1				
1				
OPEN/CLOSE  .\recharge\recharge_SP437.txt  1  (FREE)  -1				
1				
OPEN/CLOSE  .\recharge\recharge_SP438.txt  1  (FREE)  -1				
1				
OPEN/CLOSE  .\recharge\recharge_SP439.txt  1  (FREE)  -1				
1				
OPEN/CLOSE  .\recharge\recharge_SP440.txt  1  (FREE)  -1				
1				
OPEN/CLOSE  .\recharge\recharge_SP441.txt  1  (FREE)  -1				
1				
OPEN/CLOSE  .\recharge\recharge_SP442.txt  1  (FREE)  -1				
1				
OPEN/CLOSE  .\recharge\recharge_SP443.txt  1  (FREE)  -1				
1				
OPEN/CLOSE  .\recharge\recharge_SP444.txt  1  (FREE)  -1				
1				
OPEN/CLOSE  .\recharge\recharge_SP445.txt  1  (FREE)  -1				
1				
OPEN/CLOSE  .\recharge\recharge_SP446.txt  1  (FREE)  -1				
1				
OPEN/CLOSE  .\recharge\recharge_SP447.txt  1  (FREE)  -1				
1				