# MODFLOW Discretization (DIS) Package
# Data set created 2021-10-03 using MODFLOW Pre-Processing.R
#
12 216 243 600 4 2 707571.537904963 4404279.44323319 -35
0  0  1  0  0  0  0  0  0  0  0  0        ! Quasi 3D Confining Bed Under Layer 3
INTERNAL  1  (FREE)  1       ! delta-x, column sizes
150.0  150.0  150.0  150.0  150.0  150.0  150.0  150.0  150.0  150.0  150.0  150.0  150.0  150.0  150.0  150.0  150.0  150.0  150.0  150.0  150.0  150.0  150.0  150.0  150.0  150.0  150.0  150.0  150.0  150.0  150.0  150.0  150.0  150.0  150.0  150.0  150.0  150.0  150.0  150.0  150.0  150.0  150.0  150.0  150.0  150.0  150.0  150.0  150.0  150.0  150.0  150.0  150.0  150.0  150.0  150.0  150.0  150.0  150.0  150.0  150.0  150.0  150.0  150.0  150.0  150.0  150.0  150.0  150.0  150.0  150.0  150.0  150.0  150.0  150.0  150.0  150.0  150.0  150.0  150.0  150.0  150.0  150.0  150.0  150.0  150.0  150.0  150.0  150.0  150.0  150.0  150.0  150.0  150.0  150.0  150.0  150.0  150.0  150.0  150.0  150.0  150.0  150.0  150.0  150.0  150.0  150.0  150.0  150.0  150.0  150.0  150.0  150.0  150.0  150.0  150.0  150.0  150.0  150.0  150.0  150.0  150.0  150.0  150.0  150.0  150.0  150.0  150.0  150.0  150.0  150.0  150.0  150.0  150.0  150.0  150.0  150.0  150.0  150.0  150.0  150.0  150.0  150.0  150.0  150.0  150.0  150.0  150.0  150.0  150.0  150.0  150.0  150.0  150.0  150.0  150.0  150.0  150.0  150.0  150.0  150.0  150.0  150.0  150.0  150.0  150.0  150.0  150.0  150.0  150.0  150.0  150.0  150.0  150.0  150.0  150.0  150.0  150.0  150.0  150.0  150.0  150.0  150.0  150.0  150.0  150.0  150.0  150.0  150.0  150.0  150.0  150.0  150.0  150.0  150.0  150.0  150.0  150.0  150.0  150.0  150.0  150.0  150.0  150.0  150.0  150.0  150.0  150.0  150.0  150.0  150.0  150.0  150.0  150.0  150.0  150.0  150.0  150.0  150.0  150.0  150.0  150.0  150.0  150.0  150.0  150.0  150.0  150.0  150.0  150.0  150.0  150.0  150.0  150.0  150.0  150.0  150.0  150.0  150.0  150.0  150.0  150.0  150.0
INTERNAL  1  (FREE)  1       ! delta-y, row sizes
150.0  150.0  150.0  150.0  150.0  150.0  150.0  150.0  150.0  150.0  150.0  150.0  150.0  150.0  150.0  150.0  150.0  150.0  150.0  150.0  150.0  150.0  150.0  150.0  150.0  150.0  150.0  150.0  150.0  150.0  150.0  150.0  150.0  150.0  150.0  150.0  150.0  150.0  150.0  150.0  150.0  150.0  150.0  150.0  150.0  150.0  150.0  150.0  150.0  150.0  150.0  150.0  150.0  150.0  150.0  150.0  150.0  150.0  150.0  150.0  150.0  150.0  150.0  150.0  150.0  150.0  150.0  150.0  150.0  150.0  150.0  150.0  150.0  150.0  150.0  150.0  150.0  150.0  150.0  150.0  150.0  150.0  150.0  150.0  150.0  150.0  150.0  150.0  150.0  150.0  150.0  150.0  150.0  150.0  150.0  150.0  150.0  150.0  150.0  150.0  150.0  150.0  150.0  150.0  150.0  150.0  150.0  150.0  150.0  150.0  150.0  150.0  150.0  150.0  150.0  150.0  150.0  150.0  150.0  150.0  150.0  150.0  150.0  150.0  150.0  150.0  150.0  150.0  150.0  150.0  150.0  150.0  150.0  150.0  150.0  150.0  150.0  150.0  150.0  150.0  150.0  150.0  150.0  150.0  150.0  150.0  150.0  150.0  150.0  150.0  150.0  150.0  150.0  150.0  150.0  150.0  150.0  150.0  150.0  150.0  150.0  150.0  150.0  150.0  150.0  150.0  150.0  150.0  150.0  150.0  150.0  150.0  150.0  150.0  150.0  150.0  150.0  150.0  150.0  150.0  150.0  150.0  150.0  150.0  150.0  150.0  150.0  150.0  150.0  150.0  150.0  150.0  150.0  150.0  150.0  150.0  150.0  150.0  150.0  150.0  150.0  150.0  150.0  150.0  150.0  150.0  150.0  150.0  150.0  150.0  150.0  150.0  150.0  150.0  150.0  150.0  150.0  150.0  150.0  150.0  150.0  150.0  150.0  150.0  150.0  150.0  150.0  150.0  150.0  150.0  150.0  150.0  150.0  150.0  150.0  150.0  150.0  150.0  150.0  150.0  150.0  150.0  150.0
OPEN/CLOSE .\layer_z\L1_top_z.txt  1  (FREE)  -1     !L1_top_z
OPEN/CLOSE .\layer_z\L1_bot_z.txt  1  (FREE)  -1     !L1_bot_z
OPEN/CLOSE .\layer_z\L2_bot_z.txt  1  (FREE)  -1     !L2_bot_z
OPEN/CLOSE .\layer_z\L3_bot_z.txt  1  (FREE)  -1     !L3_bot_z
OPEN/CLOSE .\layer_z\L3_CB_bot_z.txt  1  (FREE)  -1  !L3_CB_bot_z
OPEN/CLOSE .\layer_z\L4_bot_z.txt  1  (FREE)  -1     !L4_bot_z
OPEN/CLOSE .\layer_z\L5_bot_z.txt  1  (FREE)  -1     !L5_bot_z
OPEN/CLOSE .\layer_z\L6_bot_z.txt  1  (FREE)  -1     !L6_bot_z
OPEN/CLOSE .\layer_z\L7_bot_z.txt  1  (FREE)  -1     !L7_bot_z
OPEN/CLOSE .\layer_z\L8_bot_z.txt  1  (FREE)  -1     !L8_bot_z
OPEN/CLOSE .\layer_z\L9_bot_z.txt  1  (FREE)  -1     !L9_bot_z
OPEN/CLOSE .\layer_z\L10_bot_z.txt  1  (FREE)  -1     !L10_bot_z
OPEN/CLOSE .\layer_z\L11_bot_z.txt  1  (FREE)  -1     !L11_bot_z
OPEN/CLOSE .\layer_z\L12_bot_z.txt  1  (FREE)  -1     !L12_bot_z
31  31  1  TR
30  30  1  TR
31  31  1  TR
31  31  1  TR
28  28  1  TR
31  31  1  TR
30  30  1  TR
31  31  1  TR
30  30  1  TR
31  31  1  TR
31  31  1  TR
30  30  1  TR
31  31  1  TR
30  30  1  TR
31  31  1  TR
31  31  1  TR
28  28  1  TR
31  31  1  TR
30  30  1  TR
31  31  1  TR
30  30  1  TR
31  31  1  TR
31  31  1  TR
30  30  1  TR
31  31  1  TR
30  30  1  TR
31  31  1  TR
31  31  1  TR
28  28  1  TR
31  31  1  TR
30  30  1  TR
31  31  1  TR
30  30  1  TR
31  31  1  TR
31  31  1  TR
30  30  1  TR
31  31  1  TR
30  30  1  TR
31  31  1  TR
31  31  1  TR
28  28  1  TR
31  31  1  TR
30  30  1  TR
31  31  1  TR
30  30  1  TR
31  31  1  TR
31  31  1  TR
30  30  1  TR
31  31  1  TR
30  30  1  TR
31  31  1  TR
31  31  1  TR
28  28  1  TR
31  31  1  TR
30  30  1  TR
31  31  1  TR
30  30  1  TR
31  31  1  TR
31  31  1  TR
30  30  1  TR
31  31  1  TR
30  30  1  TR
31  31  1  TR
31  31  1  TR
28  28  1  TR
31  31  1  TR
30  30  1  TR
31  31  1  TR
30  30  1  TR
31  31  1  TR
31  31  1  TR
30  30  1  TR
31  31  1  TR
30  30  1  TR
31  31  1  TR
31  31  1  TR
28  28  1  TR
31  31  1  TR
30  30  1  TR
31  31  1  TR
30  30  1  TR
31  31  1  TR
31  31  1  TR
30  30  1  TR
31  31  1  TR
30  30  1  TR
31  31  1  TR
31  31  1  TR
28  28  1  TR
31  31  1  TR
30  30  1  TR
31  31  1  TR
30  30  1  TR
31  31  1  TR
31  31  1  TR
30  30  1  TR
31  31  1  TR
30  30  1  TR
31  31  1  TR
31  31  1  TR
28  28  1  TR
31  31  1  TR
30  30  1  TR
31  31  1  TR
30  30  1  TR
31  31  1  TR
31  31  1  TR
30  30  1  TR
31  31  1  TR
30  30  1  TR
31  31  1  TR
31  31  1  TR
28  28  1  TR
31  31  1  TR
30  30  1  TR
31  31  1  TR
30  30  1  TR
31  31  1  TR
31  31  1  TR
30  30  1  TR
31  31  1  TR
30  30  1  TR
31  31  1  TR
31  31  1  TR
28  28  1  TR
31  31  1  TR
30  30  1  TR
31  31  1  TR
30  30  1  TR
31  31  1  TR
31  31  1  TR
30  30  1  TR
31  31  1  TR
30  30  1  TR
31  31  1  TR
31  31  1  TR
28  28  1  TR
31  31  1  TR
30  30  1  TR
31  31  1  TR
30  30  1  TR
31  31  1  TR
31  31  1  TR
30  30  1  TR
31  31  1  TR
30  30  1  TR
31  31  1  TR
31  31  1  TR
28  28  1  TR
31  31  1  TR
30  30  1  TR
31  31  1  TR
30  30  1  TR
31  31  1  TR
31  31  1  TR
30  30  1  TR
31  31  1  TR
30  30  1  TR
31  31  1  TR
31  31  1  TR
28  28  1  TR
31  31  1  TR
30  30  1  TR
31  31  1  TR
30  30  1  TR
31  31  1  TR
31  31  1  TR
30  30  1  TR
31  31  1  TR
30  30  1  TR
31  31  1  TR
31  31  1  TR
28  28  1  TR
31  31  1  TR
30  30  1  TR
31  31  1  TR
30  30  1  TR
31  31  1  TR
31  31  1  TR
30  30  1  TR
31  31  1  TR
30  30  1  TR
31  31  1  TR
31  31  1  TR
28  28  1  TR
31  31  1  TR
30  30  1  TR
31  31  1  TR
30  30  1  TR
31  31  1  TR
31  31  1  TR
30  30  1  TR
31  31  1  TR
30  30  1  TR
31  31  1  TR
31  31  1  TR
28  28  1  TR
31  31  1  TR
30  30  1  TR
31  31  1  TR
30  30  1  TR
31  31  1  TR
31  31  1  TR
30  30  1  TR
31  31  1  TR
30  30  1  TR
31  31  1  TR
31  31  1  TR
28  28  1  TR
31  31  1  TR
30  30  1  TR
31  31  1  TR
30  30  1  TR
31  31  1  TR
31  31  1  TR
30  30  1  TR
31  31  1  TR
30  30  1  TR
31  31  1  TR
31  31  1  TR
28  28  1  TR
31  31  1  TR
30  30  1  TR
31  31  1  TR
30  30  1  TR
31  31  1  TR
31  31  1  TR
30  30  1  TR
31  31  1  TR
30  30  1  TR
31  31  1  TR
31  31  1  TR
28  28  1  TR
31  31  1  TR
30  30  1  TR
31  31  1  TR
30  30  1  TR
31  31  1  TR
31  31  1  TR
30  30  1  TR
31  31  1  TR
30  30  1  TR
31  31  1  TR
31  31  1  TR
28  28  1  TR
31  31  1  TR
30  30  1  TR
31  31  1  TR
30  30  1  TR
31  31  1  TR
31  31  1  TR
30  30  1  TR
31  31  1  TR
30  30  1  TR
31  31  1  TR
31  31  1  TR
28  28  1  TR
31  31  1  TR
30  30  1  TR
31  31  1  TR
30  30  1  TR
31  31  1  TR
31  31  1  TR
30  30  1  TR
31  31  1  TR
30  30  1  TR
31  31  1  TR
31  31  1  TR
28  28  1  TR
31  31  1  TR
30  30  1  TR
31  31  1  TR
30  30  1  TR
31  31  1  TR
31  31  1  TR
30  30  1  TR
31  31  1  TR
30  30  1  TR
31  31  1  TR
31  31  1  TR
28  28  1  TR
31  31  1  TR
30  30  1  TR
31  31  1  TR
30  30  1  TR
31  31  1  TR
31  31  1  TR
30  30  1  TR
31  31  1  TR
30  30  1  TR
31  31  1  TR
31  31  1  TR
28  28  1  TR
31  31  1  TR
30  30  1  TR
31  31  1  TR
30  30  1  TR
31  31  1  TR
31  31  1  TR
30  30  1  TR
31  31  1  TR
30  30  1  TR
31  31  1  TR
31  31  1  TR
28  28  1  TR
31  31  1  TR
30  30  1  TR
31  31  1  TR
30  30  1  TR
31  31  1  TR
31  31  1  TR
30  30  1  TR
31  31  1  TR
30  30  1  TR
31  31  1  TR
31  31  1  TR
28  28  1  TR
31  31  1  TR
30  30  1  TR
31  31  1  TR
30  30  1  TR
31  31  1  TR
31  31  1  TR
30  30  1  TR
31  31  1  TR
30  30  1  TR
31  31  1  TR
31  31  1  TR
28  28  1  TR
31  31  1  TR
30  30  1  TR
31  31  1  TR
30  30  1  TR
31  31  1  TR
31  31  1  TR
30  30  1  TR
31  31  1  TR
30  30  1  TR
31  31  1  TR
31  31  1  TR
28  28  1  TR
31  31  1  TR
30  30  1  TR
31  31  1  TR
30  30  1  TR
31  31  1  TR
31  31  1  TR
30  30  1  TR
31  31  1  TR
30  30  1  TR
31  31  1  TR
31  31  1  TR
28  28  1  TR
31  31  1  TR
30  30  1  TR
31  31  1  TR
30  30  1  TR
31  31  1  TR
31  31  1  TR
30  30  1  TR
31  31  1  TR
30  30  1  TR
31  31  1  TR
31  31  1  TR
28  28  1  TR
31  31  1  TR
30  30  1  TR
31  31  1  TR
30  30  1  TR
31  31  1  TR
31  31  1  TR
30  30  1  TR
31  31  1  TR
30  30  1  TR
31  31  1  TR
31  31  1  TR
28  28  1  TR
31  31  1  TR
30  30  1  TR
31  31  1  TR
30  30  1  TR
31  31  1  TR
31  31  1  TR
30  30  1  TR
31  31  1  TR
30  30  1  TR
31  31  1  TR
31  31  1  TR
28  28  1  TR
31  31  1  TR
30  30  1  TR
31  31  1  TR
30  30  1  TR
31  31  1  TR
31  31  1  TR
30  30  1  TR
31  31  1  TR
30  30  1  TR
31  31  1  TR
31  31  1  TR
28  28  1  TR
31  31  1  TR
30  30  1  TR
31  31  1  TR
30  30  1  TR
31  31  1  TR
31  31  1  TR
30  30  1  TR
31  31  1  TR
30  30  1  TR
31  31  1  TR
31  31  1  TR
28  28  1  TR
31  31  1  TR
30  30  1  TR
31  31  1  TR
30  30  1  TR
31  31  1  TR
31  31  1  TR
30  30  1  TR
31  31  1  TR
30  30  1  TR
31  31  1  TR
31  31  1  TR
28  28  1  TR
31  31  1  TR
30  30  1  TR
31  31  1  TR
30  30  1  TR
31  31  1  TR
31  31  1  TR
30  30  1  TR
31  31  1  TR
30  30  1  TR
31  31  1  TR
31  31  1  TR
28  28  1  TR
31  31  1  TR
30  30  1  TR
31  31  1  TR
30  30  1  TR
31  31  1  TR
31  31  1  TR
30  30  1  TR
31  31  1  TR
30  30  1  TR
31  31  1  TR
31  31  1  TR
28  28  1  TR
31  31  1  TR
30  30  1  TR
31  31  1  TR
30  30  1  TR
31  31  1  TR
31  31  1  TR
30  30  1  TR
31  31  1  TR
30  30  1  TR
31  31  1  TR
31  31  1  TR
28  28  1  TR
31  31  1  TR
30  30  1  TR
31  31  1  TR
30  30  1  TR
31  31  1  TR
31  31  1  TR
30  30  1  TR
31  31  1  TR
30  30  1  TR
31  31  1  TR
31  31  1  TR
28  28  1  TR
31  31  1  TR
30  30  1  TR
31  31  1  TR
30  30  1  TR
31  31  1  TR
31  31  1  TR
30  30  1  TR
31  31  1  TR
30  30  1  TR
31  31  1  TR
31  31  1  TR
28  28  1  TR
31  31  1  TR
30  30  1  TR
31  31  1  TR
30  30  1  TR
31  31  1  TR
31  31  1  TR
30  30  1  TR
31  31  1  TR
30  30  1  TR
31  31  1  TR
31  31  1  TR
28  28  1  TR
31  31  1  TR
30  30  1  TR
31  31  1  TR
30  30  1  TR
31  31  1  TR
31  31  1  TR
30  30  1  TR
31  31  1  TR
30  30  1  TR
31  31  1  TR
31  31  1  TR
28  28  1  TR
31  31  1  TR
30  30  1  TR
31  31  1  TR
30  30  1  TR
31  31  1  TR
31  31  1  TR
30  30  1  TR
31  31  1  TR
30  30  1  TR
31  31  1  TR
31  31  1  TR
28  28  1  TR
31  31  1  TR
30  30  1  TR
31  31  1  TR
30  30  1  TR
31  31  1  TR
31  31  1  TR
30  30  1  TR
31  31  1  TR
30  30  1  TR
31  31  1  TR
31  31  1  TR
28  28  1  TR
31  31  1  TR
30  30  1  TR
31  31  1  TR
30  30  1  TR
31  31  1  TR
31  31  1  TR
30  30  1  TR
31  31  1  TR
30  30  1  TR
31  31  1  TR
31  31  1  TR
28  28  1  TR
31  31  1  TR
30  30  1  TR
31  31  1  TR
30  30  1  TR
31  31  1  TR
31  31  1  TR
30  30  1  TR
31  31  1  TR
30  30  1  TR
31  31  1  TR
31  31  1  TR
28  28  1  TR
31  31  1  TR
30  30  1  TR
31  31  1  TR
30  30  1  TR
31  31  1  TR
31  31  1  TR
30  30  1  TR
31  31  1  TR
30  30  1  TR
31  31  1  TR
31  31  1  TR
28  28  1  TR
31  31  1  TR
30  30  1  TR
31  31  1  TR
30  30  1  TR
31  31  1  TR
31  31  1  TR
30  30  1  TR
31  31  1  TR
30  30  1  TR
31  31  1  TR
31  31  1  TR
28  28  1  TR
31  31  1  TR
30  30  1  TR
31  31  1  TR
30  30  1  TR
31  31  1  TR
31  31  1  TR
30  30  1  TR
31  31  1  TR
30  30  1  TR
31  31  1  TR
31  31  1  TR
28  28  1  TR
31  31  1  TR
30  30  1  TR
31  31  1  TR
30  30  1  TR
31  31  1  TR
31  31  1  TR
30  30  1  TR