# MODFLOW Output Control (OC) Package
# Data set created 2021-10-27 using MODFLOW Pre-Processing.R
#
HEAD SAVE UNIT 30
HEAD PRINT FORMAT 0
COMPACT BUDGET
PERIOD 1 STEP 31
SAVE HEAD
SAVE BUDGET
PRINT BUDGET
PERIOD 2 STEP 30
SAVE HEAD
SAVE BUDGET
PRINT BUDGET
PERIOD 3 STEP 31
SAVE HEAD
SAVE BUDGET
PRINT BUDGET
PERIOD 4 STEP 31
SAVE HEAD
SAVE BUDGET
PRINT BUDGET
PERIOD 5 STEP 28
SAVE HEAD
SAVE BUDGET
PRINT BUDGET
PERIOD 6 STEP 31
SAVE HEAD
SAVE BUDGET
PRINT BUDGET
PERIOD 7 STEP 30
SAVE HEAD
SAVE BUDGET
PRINT BUDGET
PERIOD 8 STEP 31
SAVE HEAD
SAVE BUDGET
PRINT BUDGET
PERIOD 9 STEP 30
SAVE HEAD
SAVE BUDGET
PRINT BUDGET
PERIOD 10 STEP 31
SAVE HEAD
SAVE BUDGET
PRINT BUDGET
PERIOD 11 STEP 31
SAVE HEAD
SAVE BUDGET
PRINT BUDGET
PERIOD 12 STEP 30
SAVE HEAD
SAVE BUDGET
PRINT BUDGET
PERIOD 13 STEP 31
SAVE HEAD
SAVE BUDGET
PRINT BUDGET
PERIOD 14 STEP 30
SAVE HEAD
SAVE BUDGET
PRINT BUDGET
PERIOD 15 STEP 31
SAVE HEAD
SAVE BUDGET
PRINT BUDGET
PERIOD 16 STEP 31
SAVE HEAD
SAVE BUDGET
PRINT BUDGET
PERIOD 17 STEP 28
SAVE HEAD
SAVE BUDGET
PRINT BUDGET
PERIOD 18 STEP 31
SAVE HEAD
SAVE BUDGET
PRINT BUDGET
PERIOD 19 STEP 30
SAVE HEAD
SAVE BUDGET
PRINT BUDGET
PERIOD 20 STEP 31
SAVE HEAD
SAVE BUDGET
PRINT BUDGET
PERIOD 21 STEP 30
SAVE HEAD
SAVE BUDGET
PRINT BUDGET
PERIOD 22 STEP 31
SAVE HEAD
SAVE BUDGET
PRINT BUDGET
PERIOD 23 STEP 31
SAVE HEAD
SAVE BUDGET
PRINT BUDGET
PERIOD 24 STEP 30
SAVE HEAD
SAVE BUDGET
PRINT BUDGET
PERIOD 25 STEP 31
SAVE HEAD
SAVE BUDGET
PRINT BUDGET
PERIOD 26 STEP 30
SAVE HEAD
SAVE BUDGET
PRINT BUDGET
PERIOD 27 STEP 31
SAVE HEAD
SAVE BUDGET
PRINT BUDGET
PERIOD 28 STEP 31
SAVE HEAD
SAVE BUDGET
PRINT BUDGET
PERIOD 29 STEP 28
SAVE HEAD
SAVE BUDGET
PRINT BUDGET
PERIOD 30 STEP 31
SAVE HEAD
SAVE BUDGET
PRINT BUDGET
PERIOD 31 STEP 30
SAVE HEAD
SAVE BUDGET
PRINT BUDGET
PERIOD 32 STEP 31
SAVE HEAD
SAVE BUDGET
PRINT BUDGET
PERIOD 33 STEP 30
SAVE HEAD
SAVE BUDGET
PRINT BUDGET
PERIOD 34 STEP 31
SAVE HEAD
SAVE BUDGET
PRINT BUDGET
PERIOD 35 STEP 31
SAVE HEAD
SAVE BUDGET
PRINT BUDGET
PERIOD 36 STEP 30
SAVE HEAD
SAVE BUDGET
PRINT BUDGET
PERIOD 37 STEP 31
SAVE HEAD
SAVE BUDGET
PRINT BUDGET
PERIOD 38 STEP 30
SAVE HEAD
SAVE BUDGET
PRINT BUDGET
PERIOD 39 STEP 31
SAVE HEAD
SAVE BUDGET
PRINT BUDGET
PERIOD 40 STEP 31
SAVE HEAD
SAVE BUDGET
PRINT BUDGET
PERIOD 41 STEP 29
SAVE HEAD
SAVE BUDGET
PRINT BUDGET
PERIOD 42 STEP 31
SAVE HEAD
SAVE BUDGET
PRINT BUDGET
PERIOD 43 STEP 30
SAVE HEAD
SAVE BUDGET
PRINT BUDGET
PERIOD 44 STEP 31
SAVE HEAD
SAVE BUDGET
PRINT BUDGET
PERIOD 45 STEP 30
SAVE HEAD
SAVE BUDGET
PRINT BUDGET
PERIOD 46 STEP 31
SAVE HEAD
SAVE BUDGET
PRINT BUDGET
PERIOD 47 STEP 31
SAVE HEAD
SAVE BUDGET
PRINT BUDGET
PERIOD 48 STEP 30
SAVE HEAD
SAVE BUDGET
PRINT BUDGET
PERIOD 49 STEP 31
SAVE HEAD
SAVE BUDGET
PRINT BUDGET
PERIOD 50 STEP 30
SAVE HEAD
SAVE BUDGET
PRINT BUDGET
PERIOD 51 STEP 31
SAVE HEAD
SAVE BUDGET
PRINT BUDGET
PERIOD 52 STEP 31
SAVE HEAD
SAVE BUDGET
PRINT BUDGET
PERIOD 53 STEP 28
SAVE HEAD
SAVE BUDGET
PRINT BUDGET
PERIOD 54 STEP 31
SAVE HEAD
SAVE BUDGET
PRINT BUDGET
PERIOD 55 STEP 30
SAVE HEAD
SAVE BUDGET
PRINT BUDGET
PERIOD 56 STEP 31
SAVE HEAD
SAVE BUDGET
PRINT BUDGET
PERIOD 57 STEP 30
SAVE HEAD
SAVE BUDGET
PRINT BUDGET
PERIOD 58 STEP 31
SAVE HEAD
SAVE BUDGET
PRINT BUDGET
PERIOD 59 STEP 31
SAVE HEAD
SAVE BUDGET
PRINT BUDGET
PERIOD 60 STEP 30
SAVE HEAD
SAVE BUDGET
PRINT BUDGET
PERIOD 61 STEP 31
SAVE HEAD
SAVE BUDGET
PRINT BUDGET
PERIOD 62 STEP 30
SAVE HEAD
SAVE BUDGET
PRINT BUDGET
PERIOD 63 STEP 31
SAVE HEAD
SAVE BUDGET
PRINT BUDGET
PERIOD 64 STEP 31
SAVE HEAD
SAVE BUDGET
PRINT BUDGET
PERIOD 65 STEP 28
SAVE HEAD
SAVE BUDGET
PRINT BUDGET
PERIOD 66 STEP 31
SAVE HEAD
SAVE BUDGET
PRINT BUDGET
PERIOD 67 STEP 30
SAVE HEAD
SAVE BUDGET
PRINT BUDGET
PERIOD 68 STEP 31
SAVE HEAD
SAVE BUDGET
PRINT BUDGET
PERIOD 69 STEP 30
SAVE HEAD
SAVE BUDGET
PRINT BUDGET
PERIOD 70 STEP 31
SAVE HEAD
SAVE BUDGET
PRINT BUDGET
PERIOD 71 STEP 31
SAVE HEAD
SAVE BUDGET
PRINT BUDGET
PERIOD 72 STEP 30
SAVE HEAD
SAVE BUDGET
PRINT BUDGET
PERIOD 73 STEP 31
SAVE HEAD
SAVE BUDGET
PRINT BUDGET
PERIOD 74 STEP 30
SAVE HEAD
SAVE BUDGET
PRINT BUDGET
PERIOD 75 STEP 31
SAVE HEAD
SAVE BUDGET
PRINT BUDGET
PERIOD 76 STEP 31
SAVE HEAD
SAVE BUDGET
PRINT BUDGET
PERIOD 77 STEP 28
SAVE HEAD
SAVE BUDGET
PRINT BUDGET
PERIOD 78 STEP 31
SAVE HEAD
SAVE BUDGET
PRINT BUDGET
PERIOD 79 STEP 30
SAVE HEAD
SAVE BUDGET
PRINT BUDGET
PERIOD 80 STEP 31
SAVE HEAD
SAVE BUDGET
PRINT BUDGET
PERIOD 81 STEP 30
SAVE HEAD
SAVE BUDGET
PRINT BUDGET
PERIOD 82 STEP 31
SAVE HEAD
SAVE BUDGET
PRINT BUDGET
PERIOD 83 STEP 31
SAVE HEAD
SAVE BUDGET
PRINT BUDGET
PERIOD 84 STEP 30
SAVE HEAD
SAVE BUDGET
PRINT BUDGET
PERIOD 85 STEP 31
SAVE HEAD
SAVE BUDGET
PRINT BUDGET
PERIOD 86 STEP 30
SAVE HEAD
SAVE BUDGET
PRINT BUDGET
PERIOD 87 STEP 31
SAVE HEAD
SAVE BUDGET
PRINT BUDGET
PERIOD 88 STEP 31
SAVE HEAD
SAVE BUDGET
PRINT BUDGET
PERIOD 89 STEP 29
SAVE HEAD
SAVE BUDGET
PRINT BUDGET
PERIOD 90 STEP 31
SAVE HEAD
SAVE BUDGET
PRINT BUDGET
PERIOD 91 STEP 30
SAVE HEAD
SAVE BUDGET
PRINT BUDGET
PERIOD 92 STEP 31
SAVE HEAD
SAVE BUDGET
PRINT BUDGET
PERIOD 93 STEP 30
SAVE HEAD
SAVE BUDGET
PRINT BUDGET
PERIOD 94 STEP 31
SAVE HEAD
SAVE BUDGET
PRINT BUDGET
PERIOD 95 STEP 31
SAVE HEAD
SAVE BUDGET
PRINT BUDGET
PERIOD 96 STEP 30
SAVE HEAD
SAVE BUDGET
PRINT BUDGET
PERIOD 97 STEP 31
SAVE HEAD
SAVE BUDGET
PRINT BUDGET
PERIOD 98 STEP 30
SAVE HEAD
SAVE BUDGET
PRINT BUDGET
PERIOD 99 STEP 31
SAVE HEAD
SAVE BUDGET
PRINT BUDGET
PERIOD 100 STEP 31
SAVE HEAD
SAVE BUDGET
PRINT BUDGET
PERIOD 101 STEP 28
SAVE HEAD
SAVE BUDGET
PRINT BUDGET
PERIOD 102 STEP 31
SAVE HEAD
SAVE BUDGET
PRINT BUDGET
PERIOD 103 STEP 30
SAVE HEAD
SAVE BUDGET
PRINT BUDGET
PERIOD 104 STEP 31
SAVE HEAD
SAVE BUDGET
PRINT BUDGET
PERIOD 105 STEP 30
SAVE HEAD
SAVE BUDGET
PRINT BUDGET
PERIOD 106 STEP 31
SAVE HEAD
SAVE BUDGET
PRINT BUDGET
PERIOD 107 STEP 31
SAVE HEAD
SAVE BUDGET
PRINT BUDGET
PERIOD 108 STEP 30
SAVE HEAD
SAVE BUDGET
PRINT BUDGET
PERIOD 109 STEP 31
SAVE HEAD
SAVE BUDGET
PRINT BUDGET
PERIOD 110 STEP 30
SAVE HEAD
SAVE BUDGET
PRINT BUDGET
PERIOD 111 STEP 31
SAVE HEAD
SAVE BUDGET
PRINT BUDGET
PERIOD 112 STEP 31
SAVE HEAD
SAVE BUDGET
PRINT BUDGET
PERIOD 113 STEP 28
SAVE HEAD
SAVE BUDGET
PRINT BUDGET
PERIOD 114 STEP 31
SAVE HEAD
SAVE BUDGET
PRINT BUDGET
PERIOD 115 STEP 30
SAVE HEAD
SAVE BUDGET
PRINT BUDGET
PERIOD 116 STEP 31
SAVE HEAD
SAVE BUDGET
PRINT BUDGET
PERIOD 117 STEP 30
SAVE HEAD
SAVE BUDGET
PRINT BUDGET
PERIOD 118 STEP 31
SAVE HEAD
SAVE BUDGET
PRINT BUDGET
PERIOD 119 STEP 31
SAVE HEAD
SAVE BUDGET
PRINT BUDGET
PERIOD 120 STEP 30
SAVE HEAD
SAVE BUDGET
PRINT BUDGET
PERIOD 121 STEP 31
SAVE HEAD
SAVE BUDGET
PRINT BUDGET
PERIOD 122 STEP 30
SAVE HEAD
SAVE BUDGET
PRINT BUDGET
PERIOD 123 STEP 31
SAVE HEAD
SAVE BUDGET
PRINT BUDGET
PERIOD 124 STEP 31
SAVE HEAD
SAVE BUDGET
PRINT BUDGET
PERIOD 125 STEP 28
SAVE HEAD
SAVE BUDGET
PRINT BUDGET
PERIOD 126 STEP 31
SAVE HEAD
SAVE BUDGET
PRINT BUDGET
PERIOD 127 STEP 30
SAVE HEAD
SAVE BUDGET
PRINT BUDGET
PERIOD 128 STEP 31
SAVE HEAD
SAVE BUDGET
PRINT BUDGET
PERIOD 129 STEP 30
SAVE HEAD
SAVE BUDGET
PRINT BUDGET
PERIOD 130 STEP 31
SAVE HEAD
SAVE BUDGET
PRINT BUDGET
PERIOD 131 STEP 31
SAVE HEAD
SAVE BUDGET
PRINT BUDGET
PERIOD 132 STEP 30
SAVE HEAD
SAVE BUDGET
PRINT BUDGET
PERIOD 133 STEP 31
SAVE HEAD
SAVE BUDGET
PRINT BUDGET
PERIOD 134 STEP 30
SAVE HEAD
SAVE BUDGET
PRINT BUDGET
PERIOD 135 STEP 31
SAVE HEAD
SAVE BUDGET
PRINT BUDGET
PERIOD 136 STEP 31
SAVE HEAD
SAVE BUDGET
PRINT BUDGET
PERIOD 137 STEP 29
SAVE HEAD
SAVE BUDGET
PRINT BUDGET
PERIOD 138 STEP 31
SAVE HEAD
SAVE BUDGET
PRINT BUDGET
PERIOD 139 STEP 30
SAVE HEAD
SAVE BUDGET
PRINT BUDGET
PERIOD 140 STEP 31
SAVE HEAD
SAVE BUDGET
PRINT BUDGET
PERIOD 141 STEP 30
SAVE HEAD
SAVE BUDGET
PRINT BUDGET
PERIOD 142 STEP 31
SAVE HEAD
SAVE BUDGET
PRINT BUDGET
PERIOD 143 STEP 31
SAVE HEAD
SAVE BUDGET
PRINT BUDGET
PERIOD 144 STEP 30
SAVE HEAD
SAVE BUDGET
PRINT BUDGET
PERIOD 145 STEP 31
SAVE HEAD
SAVE BUDGET
PRINT BUDGET
PERIOD 146 STEP 30
SAVE HEAD
SAVE BUDGET
PRINT BUDGET
PERIOD 147 STEP 31
SAVE HEAD
SAVE BUDGET
PRINT BUDGET
PERIOD 148 STEP 31
SAVE HEAD
SAVE BUDGET
PRINT BUDGET
PERIOD 149 STEP 28
SAVE HEAD
SAVE BUDGET
PRINT BUDGET
PERIOD 150 STEP 31
SAVE HEAD
SAVE BUDGET
PRINT BUDGET
PERIOD 151 STEP 30
SAVE HEAD
SAVE BUDGET
PRINT BUDGET
PERIOD 152 STEP 31
SAVE HEAD
SAVE BUDGET
PRINT BUDGET
PERIOD 153 STEP 30
SAVE HEAD
SAVE BUDGET
PRINT BUDGET
PERIOD 154 STEP 31
SAVE HEAD
SAVE BUDGET
PRINT BUDGET
PERIOD 155 STEP 31
SAVE HEAD
SAVE BUDGET
PRINT BUDGET
PERIOD 156 STEP 30
SAVE HEAD
SAVE BUDGET
PRINT BUDGET
PERIOD 157 STEP 31
SAVE HEAD
SAVE BUDGET
PRINT BUDGET
PERIOD 158 STEP 30
SAVE HEAD
SAVE BUDGET
PRINT BUDGET
PERIOD 159 STEP 31
SAVE HEAD
SAVE BUDGET
PRINT BUDGET
PERIOD 160 STEP 31
SAVE HEAD
SAVE BUDGET
PRINT BUDGET
PERIOD 161 STEP 28
SAVE HEAD
SAVE BUDGET
PRINT BUDGET
PERIOD 162 STEP 31
SAVE HEAD
SAVE BUDGET
PRINT BUDGET
PERIOD 163 STEP 30
SAVE HEAD
SAVE BUDGET
PRINT BUDGET
PERIOD 164 STEP 31
SAVE HEAD
SAVE BUDGET
PRINT BUDGET
PERIOD 165 STEP 30
SAVE HEAD
SAVE BUDGET
PRINT BUDGET
PERIOD 166 STEP 31
SAVE HEAD
SAVE BUDGET
PRINT BUDGET
PERIOD 167 STEP 31
SAVE HEAD
SAVE BUDGET
PRINT BUDGET
PERIOD 168 STEP 30
SAVE HEAD
SAVE BUDGET
PRINT BUDGET
PERIOD 169 STEP 31
SAVE HEAD
SAVE BUDGET
PRINT BUDGET
PERIOD 170 STEP 30
SAVE HEAD
SAVE BUDGET
PRINT BUDGET
PERIOD 171 STEP 31
SAVE HEAD
SAVE BUDGET
PRINT BUDGET
PERIOD 172 STEP 31
SAVE HEAD
SAVE BUDGET
PRINT BUDGET
PERIOD 173 STEP 28
SAVE HEAD
SAVE BUDGET
PRINT BUDGET
PERIOD 174 STEP 31
SAVE HEAD
SAVE BUDGET
PRINT BUDGET
PERIOD 175 STEP 30
SAVE HEAD
SAVE BUDGET
PRINT BUDGET
PERIOD 176 STEP 31
SAVE HEAD
SAVE BUDGET
PRINT BUDGET
PERIOD 177 STEP 30
SAVE HEAD
SAVE BUDGET
PRINT BUDGET
PERIOD 178 STEP 31
SAVE HEAD
SAVE BUDGET
PRINT BUDGET
PERIOD 179 STEP 31
SAVE HEAD
SAVE BUDGET
PRINT BUDGET
PERIOD 180 STEP 30
SAVE HEAD
SAVE BUDGET
PRINT BUDGET
PERIOD 181 STEP 31
SAVE HEAD
SAVE BUDGET
PRINT BUDGET
PERIOD 182 STEP 30
SAVE HEAD
SAVE BUDGET
PRINT BUDGET
PERIOD 183 STEP 31
SAVE HEAD
SAVE BUDGET
PRINT BUDGET
PERIOD 184 STEP 31
SAVE HEAD
SAVE BUDGET
PRINT BUDGET
PERIOD 185 STEP 29
SAVE HEAD
SAVE BUDGET
PRINT BUDGET
PERIOD 186 STEP 31
SAVE HEAD
SAVE BUDGET
PRINT BUDGET
PERIOD 187 STEP 30
SAVE HEAD
SAVE BUDGET
PRINT BUDGET
PERIOD 188 STEP 31
SAVE HEAD
SAVE BUDGET
PRINT BUDGET
PERIOD 189 STEP 30
SAVE HEAD
SAVE BUDGET
PRINT BUDGET
PERIOD 190 STEP 31
SAVE HEAD
SAVE BUDGET
PRINT BUDGET
PERIOD 191 STEP 31
SAVE HEAD
SAVE BUDGET
PRINT BUDGET
PERIOD 192 STEP 30
SAVE HEAD
SAVE BUDGET
PRINT BUDGET
PERIOD 193 STEP 31
SAVE HEAD
SAVE BUDGET
PRINT BUDGET
PERIOD 194 STEP 30
SAVE HEAD
SAVE BUDGET
PRINT BUDGET
PERIOD 195 STEP 31
SAVE HEAD
SAVE BUDGET
PRINT BUDGET
PERIOD 196 STEP 31
SAVE HEAD
SAVE BUDGET
PRINT BUDGET
PERIOD 197 STEP 28
SAVE HEAD
SAVE BUDGET
PRINT BUDGET
PERIOD 198 STEP 31
SAVE HEAD
SAVE BUDGET
PRINT BUDGET
PERIOD 199 STEP 30
SAVE HEAD
SAVE BUDGET
PRINT BUDGET
PERIOD 200 STEP 31
SAVE HEAD
SAVE BUDGET
PRINT BUDGET
PERIOD 201 STEP 30
SAVE HEAD
SAVE BUDGET
PRINT BUDGET
PERIOD 202 STEP 31
SAVE HEAD
SAVE BUDGET
PRINT BUDGET
PERIOD 203 STEP 31
SAVE HEAD
SAVE BUDGET
PRINT BUDGET
PERIOD 204 STEP 30
SAVE HEAD
SAVE BUDGET
PRINT BUDGET
PERIOD 205 STEP 31
SAVE HEAD
SAVE BUDGET
PRINT BUDGET
PERIOD 206 STEP 30
SAVE HEAD
SAVE BUDGET
PRINT BUDGET
PERIOD 207 STEP 31
SAVE HEAD
SAVE BUDGET
PRINT BUDGET
PERIOD 208 STEP 31
SAVE HEAD
SAVE BUDGET
PRINT BUDGET
PERIOD 209 STEP 28
SAVE HEAD
SAVE BUDGET
PRINT BUDGET
PERIOD 210 STEP 31
SAVE HEAD
SAVE BUDGET
PRINT BUDGET
PERIOD 211 STEP 30
SAVE HEAD
SAVE BUDGET
PRINT BUDGET
PERIOD 212 STEP 31
SAVE HEAD
SAVE BUDGET
PRINT BUDGET
PERIOD 213 STEP 30
SAVE HEAD
SAVE BUDGET
PRINT BUDGET
PERIOD 214 STEP 31
SAVE HEAD
SAVE BUDGET
PRINT BUDGET
PERIOD 215 STEP 31
SAVE HEAD
SAVE BUDGET
PRINT BUDGET
PERIOD 216 STEP 30
SAVE HEAD
SAVE BUDGET
PRINT BUDGET
PERIOD 217 STEP 31
SAVE HEAD
SAVE BUDGET
PRINT BUDGET
PERIOD 218 STEP 30
SAVE HEAD
SAVE BUDGET
PRINT BUDGET
PERIOD 219 STEP 31
SAVE HEAD
SAVE BUDGET
PRINT BUDGET
PERIOD 220 STEP 31
SAVE HEAD
SAVE BUDGET
PRINT BUDGET
PERIOD 221 STEP 28
SAVE HEAD
SAVE BUDGET
PRINT BUDGET
PERIOD 222 STEP 31
SAVE HEAD
SAVE BUDGET
PRINT BUDGET
PERIOD 223 STEP 30
SAVE HEAD
SAVE BUDGET
PRINT BUDGET
PERIOD 224 STEP 31
SAVE HEAD
SAVE BUDGET
PRINT BUDGET
PERIOD 225 STEP 30
SAVE HEAD
SAVE BUDGET
PRINT BUDGET
PERIOD 226 STEP 31
SAVE HEAD
SAVE BUDGET
PRINT BUDGET
PERIOD 227 STEP 31
SAVE HEAD
SAVE BUDGET
PRINT BUDGET
PERIOD 228 STEP 30
SAVE HEAD
SAVE BUDGET
PRINT BUDGET
PERIOD 229 STEP 31
SAVE HEAD
SAVE BUDGET
PRINT BUDGET
PERIOD 230 STEP 30
SAVE HEAD
SAVE BUDGET
PRINT BUDGET
PERIOD 231 STEP 31
SAVE HEAD
SAVE BUDGET
PRINT BUDGET
PERIOD 232 STEP 31
SAVE HEAD
SAVE BUDGET
PRINT BUDGET
PERIOD 233 STEP 29
SAVE HEAD
SAVE BUDGET
PRINT BUDGET
PERIOD 234 STEP 31
SAVE HEAD
SAVE BUDGET
PRINT BUDGET
PERIOD 235 STEP 30
SAVE HEAD
SAVE BUDGET
PRINT BUDGET
PERIOD 236 STEP 31
SAVE HEAD
SAVE BUDGET
PRINT BUDGET
PERIOD 237 STEP 30
SAVE HEAD
SAVE BUDGET
PRINT BUDGET
PERIOD 238 STEP 31
SAVE HEAD
SAVE BUDGET
PRINT BUDGET
PERIOD 239 STEP 31
SAVE HEAD
SAVE BUDGET
PRINT BUDGET
PERIOD 240 STEP 30
SAVE HEAD
SAVE BUDGET
PRINT BUDGET
PERIOD 241 STEP 31
SAVE HEAD
SAVE BUDGET
PRINT BUDGET
PERIOD 242 STEP 30
SAVE HEAD
SAVE BUDGET
PRINT BUDGET
PERIOD 243 STEP 31
SAVE HEAD
SAVE BUDGET
PRINT BUDGET
PERIOD 244 STEP 31
SAVE HEAD
SAVE BUDGET
PRINT BUDGET
PERIOD 245 STEP 28
SAVE HEAD
SAVE BUDGET
PRINT BUDGET
PERIOD 246 STEP 31
SAVE HEAD
SAVE BUDGET
PRINT BUDGET
PERIOD 247 STEP 30
SAVE HEAD
SAVE BUDGET
PRINT BUDGET
PERIOD 248 STEP 31
SAVE HEAD
SAVE BUDGET
PRINT BUDGET
PERIOD 249 STEP 30
SAVE HEAD
SAVE BUDGET
PRINT BUDGET
PERIOD 250 STEP 31
SAVE HEAD
SAVE BUDGET
PRINT BUDGET
PERIOD 251 STEP 31
SAVE HEAD
SAVE BUDGET
PRINT BUDGET
PERIOD 252 STEP 30
SAVE HEAD
SAVE BUDGET
PRINT BUDGET
PERIOD 253 STEP 31
SAVE HEAD
SAVE BUDGET
PRINT BUDGET
PERIOD 254 STEP 30
SAVE HEAD
SAVE BUDGET
PRINT BUDGET
PERIOD 255 STEP 31
SAVE HEAD
SAVE BUDGET
PRINT BUDGET
PERIOD 256 STEP 31
SAVE HEAD
SAVE BUDGET
PRINT BUDGET
PERIOD 257 STEP 28
SAVE HEAD
SAVE BUDGET
PRINT BUDGET
PERIOD 258 STEP 31
SAVE HEAD
SAVE BUDGET
PRINT BUDGET
PERIOD 259 STEP 30
SAVE HEAD
SAVE BUDGET
PRINT BUDGET
PERIOD 260 STEP 31
SAVE HEAD
SAVE BUDGET
PRINT BUDGET
PERIOD 261 STEP 30
SAVE HEAD
SAVE BUDGET
PRINT BUDGET
PERIOD 262 STEP 31
SAVE HEAD
SAVE BUDGET
PRINT BUDGET
PERIOD 263 STEP 31
SAVE HEAD
SAVE BUDGET
PRINT BUDGET
PERIOD 264 STEP 30
SAVE HEAD
SAVE BUDGET
PRINT BUDGET
PERIOD 265 STEP 31
SAVE HEAD
SAVE BUDGET
PRINT BUDGET
PERIOD 266 STEP 30
SAVE HEAD
SAVE BUDGET
PRINT BUDGET
PERIOD 267 STEP 31
SAVE HEAD
SAVE BUDGET
PRINT BUDGET
PERIOD 268 STEP 31
SAVE HEAD
SAVE BUDGET
PRINT BUDGET
PERIOD 269 STEP 28
SAVE HEAD
SAVE BUDGET
PRINT BUDGET
PERIOD 270 STEP 31
SAVE HEAD
SAVE BUDGET
PRINT BUDGET
PERIOD 271 STEP 30
SAVE HEAD
SAVE BUDGET
PRINT BUDGET
PERIOD 272 STEP 31
SAVE HEAD
SAVE BUDGET
PRINT BUDGET
PERIOD 273 STEP 30
SAVE HEAD
SAVE BUDGET
PRINT BUDGET
PERIOD 274 STEP 31
SAVE HEAD
SAVE BUDGET
PRINT BUDGET
PERIOD 275 STEP 31
SAVE HEAD
SAVE BUDGET
PRINT BUDGET
PERIOD 276 STEP 30
SAVE HEAD
SAVE BUDGET
PRINT BUDGET
PERIOD 277 STEP 31
SAVE HEAD
SAVE BUDGET
PRINT BUDGET
PERIOD 278 STEP 30
SAVE HEAD
SAVE BUDGET
PRINT BUDGET
PERIOD 279 STEP 31
SAVE HEAD
SAVE BUDGET
PRINT BUDGET
PERIOD 280 STEP 31
SAVE HEAD
SAVE BUDGET
PRINT BUDGET
PERIOD 281 STEP 29
SAVE HEAD
SAVE BUDGET
PRINT BUDGET
PERIOD 282 STEP 31
SAVE HEAD
SAVE BUDGET
PRINT BUDGET
PERIOD 283 STEP 30
SAVE HEAD
SAVE BUDGET
PRINT BUDGET
PERIOD 284 STEP 31
SAVE HEAD
SAVE BUDGET
PRINT BUDGET
PERIOD 285 STEP 30
SAVE HEAD
SAVE BUDGET
PRINT BUDGET
PERIOD 286 STEP 31
SAVE HEAD
SAVE BUDGET
PRINT BUDGET
PERIOD 287 STEP 31
SAVE HEAD
SAVE BUDGET
PRINT BUDGET
PERIOD 288 STEP 30
SAVE HEAD
SAVE BUDGET
PRINT BUDGET
PERIOD 289 STEP 31
SAVE HEAD
SAVE BUDGET
PRINT BUDGET
PERIOD 290 STEP 30
SAVE HEAD
SAVE BUDGET
PRINT BUDGET
PERIOD 291 STEP 31
SAVE HEAD
SAVE BUDGET
PRINT BUDGET
PERIOD 292 STEP 31
SAVE HEAD
SAVE BUDGET
PRINT BUDGET
PERIOD 293 STEP 28
SAVE HEAD
SAVE BUDGET
PRINT BUDGET
PERIOD 294 STEP 31
SAVE HEAD
SAVE BUDGET
PRINT BUDGET
PERIOD 295 STEP 30
SAVE HEAD
SAVE BUDGET
PRINT BUDGET
PERIOD 296 STEP 31
SAVE HEAD
SAVE BUDGET
PRINT BUDGET
PERIOD 297 STEP 30
SAVE HEAD
SAVE BUDGET
PRINT BUDGET
PERIOD 298 STEP 31
SAVE HEAD
SAVE BUDGET
PRINT BUDGET
PERIOD 299 STEP 31
SAVE HEAD
SAVE BUDGET
PRINT BUDGET
PERIOD 300 STEP 30
SAVE HEAD
SAVE BUDGET
PRINT BUDGET
PERIOD 301 STEP 31
SAVE HEAD
SAVE BUDGET
PRINT BUDGET
PERIOD 302 STEP 30
SAVE HEAD
SAVE BUDGET
PRINT BUDGET
PERIOD 303 STEP 31
SAVE HEAD
SAVE BUDGET
PRINT BUDGET
PERIOD 304 STEP 31
SAVE HEAD
SAVE BUDGET
PRINT BUDGET
PERIOD 305 STEP 28
SAVE HEAD
SAVE BUDGET
PRINT BUDGET
PERIOD 306 STEP 31
SAVE HEAD
SAVE BUDGET
PRINT BUDGET
PERIOD 307 STEP 30
SAVE HEAD
SAVE BUDGET
PRINT BUDGET
PERIOD 308 STEP 31
SAVE HEAD
SAVE BUDGET
PRINT BUDGET
PERIOD 309 STEP 30
SAVE HEAD
SAVE BUDGET
PRINT BUDGET
PERIOD 310 STEP 31
SAVE HEAD
SAVE BUDGET
PRINT BUDGET
PERIOD 311 STEP 31
SAVE HEAD
SAVE BUDGET
PRINT BUDGET
PERIOD 312 STEP 30
SAVE HEAD
SAVE BUDGET
PRINT BUDGET
PERIOD 313 STEP 31
SAVE HEAD
SAVE BUDGET
PRINT BUDGET
PERIOD 314 STEP 30
SAVE HEAD
SAVE BUDGET
PRINT BUDGET
PERIOD 315 STEP 31
SAVE HEAD
SAVE BUDGET
PRINT BUDGET
PERIOD 316 STEP 31
SAVE HEAD
SAVE BUDGET
PRINT BUDGET
PERIOD 317 STEP 28
SAVE HEAD
SAVE BUDGET
PRINT BUDGET
PERIOD 318 STEP 31
SAVE HEAD
SAVE BUDGET
PRINT BUDGET
PERIOD 319 STEP 30
SAVE HEAD
SAVE BUDGET
PRINT BUDGET
PERIOD 320 STEP 31
SAVE HEAD
SAVE BUDGET
PRINT BUDGET
PERIOD 321 STEP 30
SAVE HEAD
SAVE BUDGET
PRINT BUDGET
PERIOD 322 STEP 31
SAVE HEAD
SAVE BUDGET
PRINT BUDGET
PERIOD 323 STEP 31
SAVE HEAD
SAVE BUDGET
PRINT BUDGET
PERIOD 324 STEP 30
SAVE HEAD
SAVE BUDGET
PRINT BUDGET
PERIOD 325 STEP 31
SAVE HEAD
SAVE BUDGET
PRINT BUDGET
PERIOD 326 STEP 30
SAVE HEAD
SAVE BUDGET
PRINT BUDGET
PERIOD 327 STEP 31
SAVE HEAD
SAVE BUDGET
PRINT BUDGET
PERIOD 328 STEP 31
SAVE HEAD
SAVE BUDGET
PRINT BUDGET
PERIOD 329 STEP 29
SAVE HEAD
SAVE BUDGET
PRINT BUDGET
PERIOD 330 STEP 31
SAVE HEAD
SAVE BUDGET
PRINT BUDGET
PERIOD 331 STEP 30
SAVE HEAD
SAVE BUDGET
PRINT BUDGET
PERIOD 332 STEP 31
SAVE HEAD
SAVE BUDGET
PRINT BUDGET
PERIOD 333 STEP 30
SAVE HEAD
SAVE BUDGET
PRINT BUDGET
PERIOD 334 STEP 31
SAVE HEAD
SAVE BUDGET
PRINT BUDGET
PERIOD 335 STEP 31
SAVE HEAD
SAVE BUDGET
PRINT BUDGET
PERIOD 336 STEP 30
SAVE HEAD
SAVE BUDGET
PRINT BUDGET
PERIOD 337 STEP 31
SAVE HEAD
SAVE BUDGET
PRINT BUDGET
PERIOD 338 STEP 30
SAVE HEAD
SAVE BUDGET
PRINT BUDGET
PERIOD 339 STEP 31
SAVE HEAD
SAVE BUDGET
PRINT BUDGET
PERIOD 340 STEP 31
SAVE HEAD
SAVE BUDGET
PRINT BUDGET
PERIOD 341 STEP 28
SAVE HEAD
SAVE BUDGET
PRINT BUDGET
PERIOD 342 STEP 31
SAVE HEAD
SAVE BUDGET
PRINT BUDGET
PERIOD 343 STEP 30
SAVE HEAD
SAVE BUDGET
PRINT BUDGET
PERIOD 344 STEP 31
SAVE HEAD
SAVE BUDGET
PRINT BUDGET
PERIOD 345 STEP 30
SAVE HEAD
SAVE BUDGET
PRINT BUDGET
PERIOD 346 STEP 31
SAVE HEAD
SAVE BUDGET
PRINT BUDGET
PERIOD 347 STEP 31
SAVE HEAD
SAVE BUDGET
PRINT BUDGET
PERIOD 348 STEP 30
SAVE HEAD
SAVE BUDGET
PRINT BUDGET
PERIOD 349 STEP 31
SAVE HEAD
SAVE BUDGET
PRINT BUDGET
PERIOD 350 STEP 30
SAVE HEAD
SAVE BUDGET
PRINT BUDGET
PERIOD 351 STEP 31
SAVE HEAD
SAVE BUDGET
PRINT BUDGET
PERIOD 352 STEP 31
SAVE HEAD
SAVE BUDGET
PRINT BUDGET
PERIOD 353 STEP 28
SAVE HEAD
SAVE BUDGET
PRINT BUDGET
PERIOD 354 STEP 31
SAVE HEAD
SAVE BUDGET
PRINT BUDGET
PERIOD 355 STEP 30
SAVE HEAD
SAVE BUDGET
PRINT BUDGET
PERIOD 356 STEP 31
SAVE HEAD
SAVE BUDGET
PRINT BUDGET
PERIOD 357 STEP 30
SAVE HEAD
SAVE BUDGET
PRINT BUDGET
PERIOD 358 STEP 31
SAVE HEAD
SAVE BUDGET
PRINT BUDGET
PERIOD 359 STEP 31
SAVE HEAD
SAVE BUDGET
PRINT BUDGET
PERIOD 360 STEP 30
SAVE HEAD
SAVE BUDGET
PRINT BUDGET
PERIOD 361 STEP 31
SAVE HEAD
SAVE BUDGET
PRINT BUDGET
PERIOD 362 STEP 30
SAVE HEAD
SAVE BUDGET
PRINT BUDGET
PERIOD 363 STEP 31
SAVE HEAD
SAVE BUDGET
PRINT BUDGET
PERIOD 364 STEP 31
SAVE HEAD
SAVE BUDGET
PRINT BUDGET
PERIOD 365 STEP 28
SAVE HEAD
SAVE BUDGET
PRINT BUDGET
PERIOD 366 STEP 31
SAVE HEAD
SAVE BUDGET
PRINT BUDGET
PERIOD 367 STEP 30
SAVE HEAD
SAVE BUDGET
PRINT BUDGET
PERIOD 368 STEP 31
SAVE HEAD
SAVE BUDGET
PRINT BUDGET
PERIOD 369 STEP 30
SAVE HEAD
SAVE BUDGET
PRINT BUDGET
PERIOD 370 STEP 31
SAVE HEAD
SAVE BUDGET
PRINT BUDGET
PERIOD 371 STEP 31
SAVE HEAD
SAVE BUDGET
PRINT BUDGET
PERIOD 372 STEP 30
SAVE HEAD
SAVE BUDGET
PRINT BUDGET
PERIOD 373 STEP 31
SAVE HEAD
SAVE BUDGET
PRINT BUDGET
PERIOD 374 STEP 30
SAVE HEAD
SAVE BUDGET
PRINT BUDGET
PERIOD 375 STEP 31
SAVE HEAD
SAVE BUDGET
PRINT BUDGET
PERIOD 376 STEP 31
SAVE HEAD
SAVE BUDGET
PRINT BUDGET
PERIOD 377 STEP 29
SAVE HEAD
SAVE BUDGET
PRINT BUDGET
PERIOD 378 STEP 31
SAVE HEAD
SAVE BUDGET
PRINT BUDGET
PERIOD 379 STEP 30
SAVE HEAD
SAVE BUDGET
PRINT BUDGET
PERIOD 380 STEP 31
SAVE HEAD
SAVE BUDGET
PRINT BUDGET
PERIOD 381 STEP 30
SAVE HEAD
SAVE BUDGET
PRINT BUDGET
PERIOD 382 STEP 31
SAVE HEAD
SAVE BUDGET
PRINT BUDGET
PERIOD 383 STEP 31
SAVE HEAD
SAVE BUDGET
PRINT BUDGET
PERIOD 384 STEP 30
SAVE HEAD
SAVE BUDGET
PRINT BUDGET
PERIOD 385 STEP 31
SAVE HEAD
SAVE BUDGET
PRINT BUDGET
PERIOD 386 STEP 30
SAVE HEAD
SAVE BUDGET
PRINT BUDGET
PERIOD 387 STEP 31
SAVE HEAD
SAVE BUDGET
PRINT BUDGET
PERIOD 388 STEP 31
SAVE HEAD
SAVE BUDGET
PRINT BUDGET
PERIOD 389 STEP 28
SAVE HEAD
SAVE BUDGET
PRINT BUDGET
PERIOD 390 STEP 31
SAVE HEAD
SAVE BUDGET
PRINT BUDGET
PERIOD 391 STEP 30
SAVE HEAD
SAVE BUDGET
PRINT BUDGET
PERIOD 392 STEP 31
SAVE HEAD
SAVE BUDGET
PRINT BUDGET
PERIOD 393 STEP 30
SAVE HEAD
SAVE BUDGET
PRINT BUDGET
PERIOD 394 STEP 31
SAVE HEAD
SAVE BUDGET
PRINT BUDGET
PERIOD 395 STEP 31
SAVE HEAD
SAVE BUDGET
PRINT BUDGET
PERIOD 396 STEP 30
SAVE HEAD
SAVE BUDGET
PRINT BUDGET
PERIOD 397 STEP 31
SAVE HEAD
SAVE BUDGET
PRINT BUDGET
PERIOD 398 STEP 30
SAVE HEAD
SAVE BUDGET
PRINT BUDGET
PERIOD 399 STEP 31
SAVE HEAD
SAVE BUDGET
PRINT BUDGET
PERIOD 400 STEP 31
SAVE HEAD
SAVE BUDGET
PRINT BUDGET
PERIOD 401 STEP 28
SAVE HEAD
SAVE BUDGET
PRINT BUDGET
PERIOD 402 STEP 31
SAVE HEAD
SAVE BUDGET
PRINT BUDGET
PERIOD 403 STEP 30
SAVE HEAD
SAVE BUDGET
PRINT BUDGET
PERIOD 404 STEP 31
SAVE HEAD
SAVE BUDGET
PRINT BUDGET
PERIOD 405 STEP 30
SAVE HEAD
SAVE BUDGET
PRINT BUDGET
PERIOD 406 STEP 31
SAVE HEAD
SAVE BUDGET
PRINT BUDGET
PERIOD 407 STEP 31
SAVE HEAD
SAVE BUDGET
PRINT BUDGET
PERIOD 408 STEP 30
SAVE HEAD
SAVE BUDGET
PRINT BUDGET
PERIOD 409 STEP 31
SAVE HEAD
SAVE BUDGET
PRINT BUDGET
PERIOD 410 STEP 30
SAVE HEAD
SAVE BUDGET
PRINT BUDGET
PERIOD 411 STEP 31
SAVE HEAD
SAVE BUDGET
PRINT BUDGET
PERIOD 412 STEP 31
SAVE HEAD
SAVE BUDGET
PRINT BUDGET
PERIOD 413 STEP 28
SAVE HEAD
SAVE BUDGET
PRINT BUDGET
PERIOD 414 STEP 31
SAVE HEAD
SAVE BUDGET
PRINT BUDGET
PERIOD 415 STEP 30
SAVE HEAD
SAVE BUDGET
PRINT BUDGET
PERIOD 416 STEP 31
SAVE HEAD
SAVE BUDGET
PRINT BUDGET
PERIOD 417 STEP 30
SAVE HEAD
SAVE BUDGET
PRINT BUDGET
PERIOD 418 STEP 31
SAVE HEAD
SAVE BUDGET
PRINT BUDGET
PERIOD 419 STEP 31
SAVE HEAD
SAVE BUDGET
PRINT BUDGET
PERIOD 420 STEP 30
SAVE HEAD
SAVE BUDGET
PRINT BUDGET
PERIOD 421 STEP 31
SAVE HEAD
SAVE BUDGET
PRINT BUDGET
PERIOD 422 STEP 30
SAVE HEAD
SAVE BUDGET
PRINT BUDGET
PERIOD 423 STEP 31
SAVE HEAD
SAVE BUDGET
PRINT BUDGET
PERIOD 424 STEP 31
SAVE HEAD
SAVE BUDGET
PRINT BUDGET
PERIOD 425 STEP 29
SAVE HEAD
SAVE BUDGET
PRINT BUDGET
PERIOD 426 STEP 31
SAVE HEAD
SAVE BUDGET
PRINT BUDGET
PERIOD 427 STEP 30
SAVE HEAD
SAVE BUDGET
PRINT BUDGET
PERIOD 428 STEP 31
SAVE HEAD
SAVE BUDGET
PRINT BUDGET
PERIOD 429 STEP 30
SAVE HEAD
SAVE BUDGET
PRINT BUDGET
PERIOD 430 STEP 31
SAVE HEAD
SAVE BUDGET
PRINT BUDGET
PERIOD 431 STEP 31
SAVE HEAD
SAVE BUDGET
PRINT BUDGET
PERIOD 432 STEP 30
SAVE HEAD
SAVE BUDGET
PRINT BUDGET
PERIOD 433 STEP 31
SAVE HEAD
SAVE BUDGET
PRINT BUDGET
PERIOD 434 STEP 30
SAVE HEAD
SAVE BUDGET
PRINT BUDGET
PERIOD 435 STEP 31
SAVE HEAD
SAVE BUDGET
PRINT BUDGET
PERIOD 436 STEP 31
SAVE HEAD
SAVE BUDGET
PRINT BUDGET
PERIOD 437 STEP 28
SAVE HEAD
SAVE BUDGET
PRINT BUDGET
PERIOD 438 STEP 31
SAVE HEAD
SAVE BUDGET
PRINT BUDGET
PERIOD 439 STEP 30
SAVE HEAD
SAVE BUDGET
PRINT BUDGET
PERIOD 440 STEP 31
SAVE HEAD
SAVE BUDGET
PRINT BUDGET
PERIOD 441 STEP 30
SAVE HEAD
SAVE BUDGET
PRINT BUDGET
PERIOD 442 STEP 31
SAVE HEAD
SAVE BUDGET
PRINT BUDGET
PERIOD 443 STEP 31
SAVE HEAD
SAVE BUDGET
PRINT BUDGET
PERIOD 444 STEP 30
SAVE HEAD
SAVE BUDGET
PRINT BUDGET
PERIOD 445 STEP 31
SAVE HEAD
SAVE BUDGET
PRINT BUDGET
PERIOD 446 STEP 30
SAVE HEAD
SAVE BUDGET
PRINT BUDGET
PERIOD 447 STEP 31
SAVE HEAD
SAVE BUDGET
PRINT BUDGET
PERIOD 448 STEP 31
SAVE HEAD
SAVE BUDGET
PRINT BUDGET
PERIOD 449 STEP 28
SAVE HEAD
SAVE BUDGET
PRINT BUDGET
PERIOD 450 STEP 31
SAVE HEAD
SAVE BUDGET
PRINT BUDGET
PERIOD 451 STEP 30
SAVE HEAD
SAVE BUDGET
PRINT BUDGET
PERIOD 452 STEP 31
SAVE HEAD
SAVE BUDGET
PRINT BUDGET
PERIOD 453 STEP 30
SAVE HEAD
SAVE BUDGET
PRINT BUDGET
PERIOD 454 STEP 31
SAVE HEAD
SAVE BUDGET
PRINT BUDGET
PERIOD 455 STEP 31
SAVE HEAD
SAVE BUDGET
PRINT BUDGET
PERIOD 456 STEP 30
SAVE HEAD
SAVE BUDGET
PRINT BUDGET
PERIOD 457 STEP 31
SAVE HEAD
SAVE BUDGET
PRINT BUDGET
PERIOD 458 STEP 30
SAVE HEAD
SAVE BUDGET
PRINT BUDGET
PERIOD 459 STEP 31
SAVE HEAD
SAVE BUDGET
PRINT BUDGET
PERIOD 460 STEP 31
SAVE HEAD
SAVE BUDGET
PRINT BUDGET
PERIOD 461 STEP 28
SAVE HEAD
SAVE BUDGET
PRINT BUDGET
PERIOD 462 STEP 31
SAVE HEAD
SAVE BUDGET
PRINT BUDGET
PERIOD 463 STEP 30
SAVE HEAD
SAVE BUDGET
PRINT BUDGET
PERIOD 464 STEP 31
SAVE HEAD
SAVE BUDGET
PRINT BUDGET
PERIOD 465 STEP 30
SAVE HEAD
SAVE BUDGET
PRINT BUDGET
PERIOD 466 STEP 31
SAVE HEAD
SAVE BUDGET
PRINT BUDGET
PERIOD 467 STEP 31
SAVE HEAD
SAVE BUDGET
PRINT BUDGET
PERIOD 468 STEP 30
SAVE HEAD
SAVE BUDGET
PRINT BUDGET
PERIOD 469 STEP 31
SAVE HEAD
SAVE BUDGET
PRINT BUDGET
PERIOD 470 STEP 30
SAVE HEAD
SAVE BUDGET
PRINT BUDGET
PERIOD 471 STEP 31
SAVE HEAD
SAVE BUDGET
PRINT BUDGET
PERIOD 472 STEP 31
SAVE HEAD
SAVE BUDGET
PRINT BUDGET
PERIOD 473 STEP 29
SAVE HEAD
SAVE BUDGET
PRINT BUDGET
PERIOD 474 STEP 31
SAVE HEAD
SAVE BUDGET
PRINT BUDGET
PERIOD 475 STEP 30
SAVE HEAD
SAVE BUDGET
PRINT BUDGET
PERIOD 476 STEP 31
SAVE HEAD
SAVE BUDGET
PRINT BUDGET
PERIOD 477 STEP 30
SAVE HEAD
SAVE BUDGET
PRINT BUDGET
PERIOD 478 STEP 31
SAVE HEAD
SAVE BUDGET
PRINT BUDGET
PERIOD 479 STEP 31
SAVE HEAD
SAVE BUDGET
PRINT BUDGET
PERIOD 480 STEP 30
SAVE HEAD
SAVE BUDGET
PRINT BUDGET
PERIOD 481 STEP 31
SAVE HEAD
SAVE BUDGET
PRINT BUDGET
PERIOD 482 STEP 30
SAVE HEAD
SAVE BUDGET
PRINT BUDGET
PERIOD 483 STEP 31
SAVE HEAD
SAVE BUDGET
PRINT BUDGET
PERIOD 484 STEP 31
SAVE HEAD
SAVE BUDGET
PRINT BUDGET
PERIOD 485 STEP 28
SAVE HEAD
SAVE BUDGET
PRINT BUDGET
PERIOD 486 STEP 31
SAVE HEAD
SAVE BUDGET
PRINT BUDGET
PERIOD 487 STEP 30
SAVE HEAD
SAVE BUDGET
PRINT BUDGET
PERIOD 488 STEP 31
SAVE HEAD
SAVE BUDGET
PRINT BUDGET
PERIOD 489 STEP 30
SAVE HEAD
SAVE BUDGET
PRINT BUDGET
PERIOD 490 STEP 31
SAVE HEAD
SAVE BUDGET
PRINT BUDGET
PERIOD 491 STEP 31
SAVE HEAD
SAVE BUDGET
PRINT BUDGET
PERIOD 492 STEP 30
SAVE HEAD
SAVE BUDGET
PRINT BUDGET
PERIOD 493 STEP 31
SAVE HEAD
SAVE BUDGET
PRINT BUDGET
PERIOD 494 STEP 30
SAVE HEAD
SAVE BUDGET
PRINT BUDGET
PERIOD 495 STEP 31
SAVE HEAD
SAVE BUDGET
PRINT BUDGET
PERIOD 496 STEP 31
SAVE HEAD
SAVE BUDGET
PRINT BUDGET
PERIOD 497 STEP 28
SAVE HEAD
SAVE BUDGET
PRINT BUDGET
PERIOD 498 STEP 31
SAVE HEAD
SAVE BUDGET
PRINT BUDGET
PERIOD 499 STEP 30
SAVE HEAD
SAVE BUDGET
PRINT BUDGET
PERIOD 500 STEP 31
SAVE HEAD
SAVE BUDGET
PRINT BUDGET
PERIOD 501 STEP 30
SAVE HEAD
SAVE BUDGET
PRINT BUDGET
PERIOD 502 STEP 31
SAVE HEAD
SAVE BUDGET
PRINT BUDGET
PERIOD 503 STEP 31
SAVE HEAD
SAVE BUDGET
PRINT BUDGET
PERIOD 504 STEP 30
SAVE HEAD
SAVE BUDGET
PRINT BUDGET
PERIOD 505 STEP 31
SAVE HEAD
SAVE BUDGET
PRINT BUDGET
PERIOD 506 STEP 30
SAVE HEAD
SAVE BUDGET
PRINT BUDGET
PERIOD 507 STEP 31
SAVE HEAD
SAVE BUDGET
PRINT BUDGET
PERIOD 508 STEP 31
SAVE HEAD
SAVE BUDGET
PRINT BUDGET
PERIOD 509 STEP 28
SAVE HEAD
SAVE BUDGET
PRINT BUDGET
PERIOD 510 STEP 31
SAVE HEAD
SAVE BUDGET
PRINT BUDGET
PERIOD 511 STEP 30
SAVE HEAD
SAVE BUDGET
PRINT BUDGET
PERIOD 512 STEP 31
SAVE HEAD
SAVE BUDGET
PRINT BUDGET
PERIOD 513 STEP 30
SAVE HEAD
SAVE BUDGET
PRINT BUDGET
PERIOD 514 STEP 31
SAVE HEAD
SAVE BUDGET
PRINT BUDGET
PERIOD 515 STEP 31
SAVE HEAD
SAVE BUDGET
PRINT BUDGET
PERIOD 516 STEP 30
SAVE HEAD
SAVE BUDGET
PRINT BUDGET
PERIOD 517 STEP 31
SAVE HEAD
SAVE BUDGET
PRINT BUDGET
PERIOD 518 STEP 30
SAVE HEAD
SAVE BUDGET
PRINT BUDGET
PERIOD 519 STEP 31
SAVE HEAD
SAVE BUDGET
PRINT BUDGET
PERIOD 520 STEP 31
SAVE HEAD
SAVE BUDGET
PRINT BUDGET
PERIOD 521 STEP 29
SAVE HEAD
SAVE BUDGET
PRINT BUDGET
PERIOD 522 STEP 31
SAVE HEAD
SAVE BUDGET
PRINT BUDGET
PERIOD 523 STEP 30
SAVE HEAD
SAVE BUDGET
PRINT BUDGET
PERIOD 524 STEP 31
SAVE HEAD
SAVE BUDGET
PRINT BUDGET
PERIOD 525 STEP 30
SAVE HEAD
SAVE BUDGET
PRINT BUDGET
PERIOD 526 STEP 31
SAVE HEAD
SAVE BUDGET
PRINT BUDGET
PERIOD 527 STEP 31
SAVE HEAD
SAVE BUDGET
PRINT BUDGET
PERIOD 528 STEP 30
SAVE HEAD
SAVE BUDGET
PRINT BUDGET
PERIOD 529 STEP 31
SAVE HEAD
SAVE BUDGET
PRINT BUDGET
PERIOD 530 STEP 30
SAVE HEAD
SAVE BUDGET
PRINT BUDGET
PERIOD 531 STEP 31
SAVE HEAD
SAVE BUDGET
PRINT BUDGET
PERIOD 532 STEP 31
SAVE HEAD
SAVE BUDGET
PRINT BUDGET
PERIOD 533 STEP 28
SAVE HEAD
SAVE BUDGET
PRINT BUDGET
PERIOD 534 STEP 31
SAVE HEAD
SAVE BUDGET
PRINT BUDGET
PERIOD 535 STEP 30
SAVE HEAD
SAVE BUDGET
PRINT BUDGET
PERIOD 536 STEP 31
SAVE HEAD
SAVE BUDGET
PRINT BUDGET
PERIOD 537 STEP 30
SAVE HEAD
SAVE BUDGET
PRINT BUDGET
PERIOD 538 STEP 31
SAVE HEAD
SAVE BUDGET
PRINT BUDGET
PERIOD 539 STEP 31
SAVE HEAD
SAVE BUDGET
PRINT BUDGET
PERIOD 540 STEP 30
SAVE HEAD
SAVE BUDGET
PRINT BUDGET
PERIOD 541 STEP 31
SAVE HEAD
SAVE BUDGET
PRINT BUDGET
PERIOD 542 STEP 30
SAVE HEAD
SAVE BUDGET
PRINT BUDGET
PERIOD 543 STEP 31
SAVE HEAD
SAVE BUDGET
PRINT BUDGET
PERIOD 544 STEP 31
SAVE HEAD
SAVE BUDGET
PRINT BUDGET
PERIOD 545 STEP 28
SAVE HEAD
SAVE BUDGET
PRINT BUDGET
PERIOD 546 STEP 31
SAVE HEAD
SAVE BUDGET
PRINT BUDGET
PERIOD 547 STEP 30
SAVE HEAD
SAVE BUDGET
PRINT BUDGET
PERIOD 548 STEP 31
SAVE HEAD
SAVE BUDGET
PRINT BUDGET
PERIOD 549 STEP 30
SAVE HEAD
SAVE BUDGET
PRINT BUDGET
PERIOD 550 STEP 31
SAVE HEAD
SAVE BUDGET
PRINT BUDGET
PERIOD 551 STEP 31
SAVE HEAD
SAVE BUDGET
PRINT BUDGET
PERIOD 552 STEP 30
SAVE HEAD
SAVE BUDGET
PRINT BUDGET
PERIOD 553 STEP 31
SAVE HEAD
SAVE BUDGET
PRINT BUDGET
PERIOD 554 STEP 30
SAVE HEAD
SAVE BUDGET
PRINT BUDGET
PERIOD 555 STEP 31
SAVE HEAD